* Deltares, D-Flow FM Version 1.2.105.67228M, Jul 09 2020, 22:01:04
* Source: https://svn.oss.deltares.nl/repos/delft3d/trunk/
* File creation date: 08:50:17, 16-07-2024
** INFO   : Command: "D:\4390.10\software\dflowfm-x64-1.2.105.67228M\dflowfm.exe"
