# Generated with D-HyDAMO in delftd3fmpy v.1.2.0 on 2021-09-09T09:29:28.223076Z.
# Tested and compatible with D-Flow FM Deltares, D-Flow FM Version 1.2.124.69571M, DIMRset Deltares, DIMR_EXE Version 2.00.00.69571M (Win64) and D-HYDRO suite 1D2D D-HYDRO Suite 1D2D (1.0.0.53506),.
# 
[General]
fileVersion = 3.00
fileType = roughness

[Global]
	frictionId = Strickler_15.0
	frictionType = Strickler
	frictionValue = 15

