# Generated with D-HyDAMO in delftd3fmpy v.2.0.0 on 2022-06-02T12:35:52.443004Z.
# Tested and compatible with D-Flow FM Deltares, D-Flow FM Version 1.2.124.69571M, DIMRset Deltares, DIMR_EXE Version 2.00.00.69571M (Win64) and D-HYDRO suite 1D2D D-HYDRO Suite 1D2D (1.0.0.53506),.
# 
[General]
fileVersion = 2.00
fileType = 1dField

[Global]
	quantity = waterDepth
	unit = m
	value = 0.5
	locationType = 1d

