# Generated with D-HyDAMO in delftd3fmpy v.1.2.0 on 2021-09-09T09:29:28.223076Z.
# Tested and compatible with D-Flow FM Deltares, D-Flow FM Version 1.2.124.69571M, DIMRset Deltares, DIMR_EXE Version 2.00.00.69571M (Win64) and D-HYDRO suite 1D2D D-HYDRO Suite 1D2D (1.0.0.53506),.
# 
[General]
fileVersion = 1.01
fileType = boundConds

[Forcing]
name       = Weir_RS373-st1
function   = timeseries
timeInterpolation = linear
quantity   = time
unit       = minutes since 2000-01-01 00:00:00
quantity   = weir_crestLevel
unit       = m+NAP
    0.000000    10.429000 
   60.000000    10.429000 
  120.000000    10.429000 
  180.000000    10.429000 
  240.000000    10.429000 
  300.000000    10.429000 
  360.000000    10.429000 
  420.000000    10.429000 
  480.000000    10.429000 
  540.000000    10.429000 
  600.000000    10.429000 
  660.000000    10.429000 
  720.000000    10.429000 
  780.000000    10.429000 
  840.000000    10.429000 
  900.000000    10.429000 
  960.000000    10.429000 
 1020.000000    10.429000 
 1080.000000    10.429000 
 1140.000000    10.429000 
 1200.000000    10.429000 
 1260.000000    10.429000 
 1320.000000    10.429000 
 1380.000000    10.429000 
 1440.000000    10.429000 
 1500.000000    10.429000 
 1560.000000    10.429000 
 1620.000000    10.429000 
 1680.000000    10.429000 
 1740.000000    10.429000 
 1800.000000    10.429000 
 1860.000000    10.429000 
 1920.000000    10.429000 
 1980.000000    10.429000 
 2040.000000    10.429000 
 2100.000000    10.429000 
 2160.000000    10.429000 
 2220.000000    10.429000 
 2280.000000    10.429000 
 2340.000000    10.429000 
 2400.000000    10.429000 
 2460.000000    10.429000 
 2520.000000    10.429000 
 2580.000000    10.429000 
 2640.000000    10.429000 
 2700.000000    10.429000 
 2760.000000    10.429000 
 2820.000000    10.429000 
 2880.000000    10.529000 
 2940.000000    10.529000 
 3000.000000    10.529000 
 3060.000000    10.529000 
 3120.000000    10.529000 
 3180.000000    10.529000 
 3240.000000    10.529000 
 3300.000000    10.529000 
 3360.000000    10.529000 
 3420.000000    10.529000 
 3480.000000    10.529000 
 3540.000000    10.529000 
 3600.000000    10.529000 
 3660.000000    10.529000 
 3720.000000    10.529000 
 3780.000000    10.529000 
 3840.000000    10.529000 
 3900.000000    10.529000 
 3960.000000    10.529000 
 4020.000000    10.529000 
 4080.000000    10.529000 
 4140.000000    10.529000 
 4200.000000    10.529000 
 4260.000000    10.529000 
 4320.000000    10.529000 
 4380.000000    10.529000 
 4440.000000    10.529000 
 4500.000000    10.529000 
 4560.000000    10.529000 
 4620.000000    10.529000 
 4680.000000    10.529000 
 4740.000000    10.529000 
 4800.000000    10.529000 
 4860.000000    10.529000 
 4920.000000    10.529000 
 4980.000000    10.529000 
 5040.000000    10.529000 
 5100.000000    10.529000 
 5160.000000    10.529000 
 5220.000000    10.529000 
 5280.000000    10.529000 
 5340.000000    10.529000 
 5400.000000    10.529000 
 5460.000000    10.529000 
 5520.000000    10.529000 
 5580.000000    10.529000 
 5640.000000    10.529000 
 5700.000000    10.529000 
 5760.000000    10.429000 
 5820.000000    10.429000 
 5880.000000    10.429000 
 5940.000000    10.429000 
 6000.000000    10.429000 
 6060.000000    10.429000 
 6120.000000    10.429000 
 6180.000000    10.429000 
 6240.000000    10.429000 
 6300.000000    10.429000 
 6360.000000    10.429000 
 6420.000000    10.429000 
 6480.000000    10.429000 
 6540.000000    10.429000 
 6600.000000    10.429000 
 6660.000000    10.429000 
 6720.000000    10.429000 
 6780.000000    10.429000 
 6840.000000    10.429000 
 6900.000000    10.429000 
 6960.000000    10.429000 
 7020.000000    10.429000 
 7080.000000    10.429000 
 7140.000000    10.429000 
 7200.000000    10.429000 
 7260.000000    10.429000 
 7320.000000    10.429000 
 7380.000000    10.429000 
 7440.000000    10.429000 
 7500.000000    10.429000 
 7560.000000    10.429000 
 7620.000000    10.429000 
 7680.000000    10.429000 
 7740.000000    10.429000 
 7800.000000    10.429000 
 7860.000000    10.429000 
 7920.000000    10.429000 
 7980.000000    10.429000 
 8040.000000    10.429000 
 8100.000000    10.429000 
 8160.000000    10.429000 
 8220.000000    10.429000 
 8280.000000    10.429000 
 8340.000000    10.429000 
 8400.000000    10.429000 
 8460.000000    10.429000 
 8520.000000    10.429000 
 8580.000000    10.429000 
 8640.000000    10.429000 
 8700.000000    10.429000 
 8760.000000    10.429000 
 8820.000000    10.429000 
 8880.000000    10.429000 
 8940.000000    10.429000 
 9000.000000    10.429000 
 9060.000000    10.429000 
 9120.000000    10.429000 
 9180.000000    10.429000 
 9240.000000    10.429000 
 9300.000000    10.429000 
 9360.000000    10.429000 
 9420.000000    10.429000 
 9480.000000    10.429000 
 9540.000000    10.429000 
 9600.000000    10.429000 
 9660.000000    10.429000 
 9720.000000    10.429000 
 9780.000000    10.429000 
 9840.000000    10.429000 
 9900.000000    10.429000 
 9960.000000    10.429000 
10020.000000    10.429000 
10080.000000    10.429000 
10140.000000    10.429000 
10200.000000    10.429000 
10260.000000    10.429000 
10320.000000    10.429000 
10380.000000    10.429000 
10440.000000    10.429000 
10500.000000    10.429000 
10560.000000    10.429000 
10620.000000    10.429000 
10680.000000    10.429000 
10740.000000    10.429000 
10800.000000    10.429000 
10860.000000    10.429000 
10920.000000    10.429000 
10980.000000    10.429000 
11040.000000    10.429000 
11100.000000    10.429000 
11160.000000    10.429000 
11220.000000    10.429000 
11280.000000    10.429000 
11340.000000    10.429000 
11400.000000    10.429000 
11460.000000    10.429000 
11520.000000    10.429000 
11580.000000    10.429000 
11640.000000    10.429000 
11700.000000    10.429000 
11760.000000    10.429000 
11820.000000    10.429000 
11880.000000    10.429000 
11940.000000    10.429000 
12000.000000    10.429000 
12060.000000    10.429000 
12120.000000    10.429000 
12180.000000    10.429000 
12240.000000    10.429000 
12300.000000    10.429000 
12360.000000    10.429000 
12420.000000    10.429000 
12480.000000    10.429000 
12540.000000    10.429000 
12600.000000    10.429000 
12660.000000    10.429000 
12720.000000    10.429000 
12780.000000    10.429000 
12840.000000    10.429000 
12900.000000    10.429000 
12960.000000    10.429000 
13020.000000    10.429000 
13080.000000    10.429000 
13140.000000    10.429000 
13200.000000    10.429000 
13260.000000    10.429000 
13320.000000    10.429000 
13380.000000    10.429000 
13440.000000    10.429000 
13500.000000    10.429000 
13560.000000    10.429000 
13620.000000    10.429000 
13680.000000    10.429000 
13740.000000    10.429000 
13800.000000    10.429000 
13860.000000    10.429000 
13920.000000    10.429000 
13980.000000    10.429000 
14040.000000    10.429000 
14100.000000    10.429000 
14160.000000    10.429000 
14220.000000    10.429000 
14280.000000    10.429000 
14340.000000    10.429000 
14400.000000    10.429000 
14460.000000    10.429000 
14520.000000    10.429000 
14580.000000    10.429000 
14640.000000    10.429000 
14700.000000    10.429000 
14760.000000    10.429000 
14820.000000    10.429000 
14880.000000    10.429000 
14940.000000    10.429000 
15000.000000    10.429000 
15060.000000    10.429000 
15120.000000    10.429000 
15180.000000    10.429000 
15240.000000    10.429000 
15300.000000    10.429000 
15360.000000    10.429000 
15420.000000    10.429000 
15480.000000    10.429000 
15540.000000    10.429000 
15600.000000    10.429000 
15660.000000    10.429000 
15720.000000    10.429000 
15780.000000    10.429000 
15840.000000    10.329000 
15900.000000    10.329000 
15960.000000    10.329000 
16020.000000    10.329000 
16080.000000    10.329000 
16140.000000    10.329000 
16200.000000    10.329000 
16260.000000    10.329000 
16320.000000    10.329000 
16380.000000    10.329000 
16440.000000    10.329000 
16500.000000    10.329000 
16560.000000    10.329000 
16620.000000    10.329000 
16680.000000    10.329000 
16740.000000    10.329000 
16800.000000    10.329000 
16860.000000    10.329000 
16920.000000    10.329000 
16980.000000    10.329000 
17040.000000    10.329000 
17100.000000    10.329000 
17160.000000    10.329000 
17220.000000    10.329000 
17280.000000    10.329000 
17340.000000    10.329000 
17400.000000    10.329000 
17460.000000    10.329000 
17520.000000    10.329000 
17580.000000    10.329000 
17640.000000    10.329000 
17700.000000    10.329000 
17760.000000    10.329000 
17820.000000    10.329000 
17880.000000    10.329000 
17940.000000    10.329000 
18000.000000    10.329000 
18060.000000    10.329000 
18120.000000    10.329000 
18180.000000    10.329000 
18240.000000    10.329000 
18300.000000    10.329000 
18360.000000    10.329000 
18420.000000    10.329000 
18480.000000    10.329000 
18540.000000    10.329000 
18600.000000    10.329000 
18660.000000    10.329000 
18720.000000    10.429000 
18780.000000    10.429000 
18840.000000    10.429000 
18900.000000    10.429000 
18960.000000    10.429000 
19020.000000    10.429000 
19080.000000    10.429000 
19140.000000    10.429000 
19200.000000    10.429000 
19260.000000    10.429000 
19320.000000    10.429000 
19380.000000    10.429000 
19440.000000    10.429000 
19500.000000    10.429000 
19560.000000    10.429000 
19620.000000    10.429000 
19680.000000    10.429000 
19740.000000    10.429000 
19800.000000    10.429000 
19860.000000    10.429000 
19920.000000    10.429000 
19980.000000    10.429000 
20040.000000    10.429000 
20100.000000    10.429000 
20160.000000    10.429000 
20220.000000    10.429000 
20280.000000    10.429000 
20340.000000    10.429000 
20400.000000    10.429000 
20460.000000    10.429000 
20520.000000    10.429000 
20580.000000    10.429000 
20640.000000    10.429000 
20700.000000    10.429000 
20760.000000    10.429000 
20820.000000    10.429000 
20880.000000    10.429000 
20940.000000    10.429000 
21000.000000    10.429000 
21060.000000    10.429000 
21120.000000    10.429000 
21180.000000    10.429000 
21240.000000    10.429000 
21300.000000    10.429000 
21360.000000    10.429000 
21420.000000    10.429000 
21480.000000    10.429000 
21540.000000    10.429000 
21600.000000    10.429000 
21660.000000    10.429000 
21720.000000    10.429000 
21780.000000    10.429000 
21840.000000    10.429000 
21900.000000    10.429000 
21960.000000    10.429000 
22020.000000    10.429000 
22080.000000    10.429000 
22140.000000    10.429000 
22200.000000    10.429000 
22260.000000    10.429000 
22320.000000    10.429000 
22380.000000    10.429000 
22440.000000    10.429000 
22500.000000    10.429000 
22560.000000    10.429000 
22620.000000    10.429000 
22680.000000    10.429000 
22740.000000    10.429000 
22800.000000    10.429000 
22860.000000    10.429000 
22920.000000    10.429000 
22980.000000    10.429000 
23040.000000    10.429000 
23100.000000    10.429000 
23160.000000    10.429000 
23220.000000    10.429000 
23280.000000    10.429000 
23340.000000    10.429000 
23400.000000    10.429000 
23460.000000    10.429000 
23520.000000    10.429000 
23580.000000    10.429000 
23640.000000    10.429000 
23700.000000    10.429000 
23760.000000    10.429000 
23820.000000    10.429000 
23880.000000    10.429000 
23940.000000    10.429000 
24000.000000    10.429000 
24060.000000    10.429000 
24120.000000    10.429000 
24180.000000    10.429000 
24240.000000    10.429000 
24300.000000    10.429000 
24360.000000    10.429000 
24420.000000    10.429000 
24480.000000    10.429000 
24540.000000    10.429000 
24600.000000    10.429000 
24660.000000    10.429000 
24720.000000    10.429000 
24780.000000    10.429000 
24840.000000    10.429000 
24900.000000    10.429000 
24960.000000    10.429000 
25020.000000    10.429000 
25080.000000    10.429000 
25140.000000    10.429000 
25200.000000    10.429000 
25260.000000    10.429000 
25320.000000    10.429000 
25380.000000    10.429000 
25440.000000    10.429000 
25500.000000    10.429000 
25560.000000    10.429000 
25620.000000    10.429000 
25680.000000    10.429000 
25740.000000    10.429000 
25800.000000    10.429000 
25860.000000    10.429000 
25920.000000    10.429000 
25980.000000    10.429000 
26040.000000    10.429000 
26100.000000    10.429000 
26160.000000    10.429000 
26220.000000    10.429000 
26280.000000    10.429000 
26340.000000    10.429000 
26400.000000    10.429000 
26460.000000    10.429000 
26520.000000    10.429000 
26580.000000    10.429000 
26640.000000    10.429000 
26700.000000    10.429000 
26760.000000    10.429000 
26820.000000    10.429000 
26880.000000    10.429000 
26940.000000    10.429000 
27000.000000    10.429000 
27060.000000    10.429000 
27120.000000    10.429000 
27180.000000    10.429000 
27240.000000    10.429000 
27300.000000    10.429000 
27360.000000    10.429000 
27420.000000    10.429000 
27480.000000    10.429000 
27540.000000    10.429000 
27600.000000    10.429000 
27660.000000    10.429000 
27720.000000    10.429000 
27780.000000    10.429000 
27840.000000    10.429000 
27900.000000    10.429000 
27960.000000    10.429000 
28020.000000    10.429000 
28080.000000    10.429000 
28140.000000    10.429000 
28200.000000    10.429000 
28260.000000    10.429000 
28320.000000    10.429000 
28380.000000    10.429000 
28440.000000    10.429000 
28500.000000    10.429000 
28560.000000    10.429000 
28620.000000    10.429000 
28680.000000    10.429000 
28740.000000    10.429000 
28800.000000    10.429000 
28860.000000    10.429000 

[Forcing]
name       = 140703.474000_391886.562000
function   = timeseries
timeInterpolation = linear
quantity   = time
unit       = minutes since 2000-01-01 00:00:00
quantity   = dischargebnd
unit       = m3/s
    0.000000     0.000000 
   60.000000     0.253075 
  120.000000     0.166057 
  180.000000     0.167224 
  240.000000     0.515612 
  300.000000     1.003980 
  360.000000     1.219135 
  420.000000     1.314666 
  480.000000     1.445117 
  540.000000     1.785497 
  600.000000     2.018757 
  660.000000     2.149379 
  720.000000     2.291241 
  780.000000     2.433828 
  840.000000     2.616809 
  900.000000     2.728751 
  960.000000     2.826193 
 1020.000000     2.897429 
 1080.000000     3.046368 
 1140.000000     3.171946 
 1200.000000     3.250970 
 1260.000000     3.305705 
 1320.000000     3.372813 
 1380.000000     3.353735 
 1440.000000     3.353041 
 1500.000000     3.354336 
 1560.000000     3.357485 
 1620.000000     3.361755 
 1680.000000     3.359238 
 1740.000000     3.324650 
 1800.000000     3.300844 
 1860.000000     3.174111 
 1920.000000     3.065495 
 1980.000000     2.922504 
 2040.000000     2.774157 
 2100.000000     2.669785 
 2160.000000     2.636393 
 2220.000000     2.588915 
 2280.000000     2.597419 
 2340.000000     2.653314 
 2400.000000     2.668666 
 2460.000000     2.621829 
 2520.000000     2.580849 
 2580.000000     2.512629 
 2640.000000     2.458940 
 2700.000000     2.430739 
 2760.000000     2.384762 
 2820.000000     2.331486 
 2880.000000     2.341167 
 2940.000000     2.301004 
 3000.000000     2.349044 
 3060.000000     2.392863 
 3120.000000     2.387662 
 3180.000000     2.407211 
 3240.000000     2.412800 
 3300.000000     2.493666 
 3360.000000     2.588982 
 3420.000000     2.640706 
 3480.000000     2.689906 
 3540.000000     2.637854 
 3600.000000     2.600777 
 3660.000000     2.583620 
 3720.000000     2.610654 
 3780.000000     2.777071 
 3840.000000     2.907001 
 3900.000000     3.054642 
 3960.000000     3.170638 
 4020.000000     3.316358 
 4080.000000     3.493987 
 4140.000000     3.569823 
 4200.000000     3.664133 
 4260.000000     3.732330 
 4320.000000     3.811272 
 4380.000000     3.807131 
 4440.000000     3.863295 
 4500.000000     3.916693 
 4560.000000     4.001602 
 4620.000000     4.038819 
 4680.000000     4.050722 
 4740.000000     4.093985 
 4800.000000     4.160590 
 4860.000000     4.153480 
 4920.000000     4.126623 
 4980.000000     4.061944 
 5040.000000     4.003467 
 5100.000000     3.899468 
 5160.000000     3.804505 
 5220.000000     3.752509 
 5280.000000     3.772838 
 5340.000000     3.700716 
 5400.000000     3.693162 
 5460.000000     3.710602 
 5520.000000     3.861787 
 5580.000000     3.927396 
 5640.000000     4.046446 
 5700.000000     4.172363 
 5760.000000     4.227087 
 5820.000000     4.224216 
 5880.000000     4.277981 
 5940.000000     4.391672 
 6000.000000     4.494816 
 6060.000000     4.593902 
 6120.000000     4.688650 
 6180.000000     4.783779 
 6240.000000     4.802832 
 6300.000000     4.857722 
 6360.000000     4.946392 
 6420.000000     4.968857 
 6480.000000     5.046441 
 6540.000000     5.141423 
 6600.000000     5.216304 
 6660.000000     5.271642 
 6720.000000     5.356825 
 6780.000000     5.375006 
 6840.000000     5.479503 
 6900.000000     5.681696 
 6960.000000     5.819017 
 7020.000000     5.939169 
 7080.000000     6.044830 
 7140.000000     6.130441 
 7200.000000     6.176717 
 7260.000000     6.238368 
 7320.000000     6.381837 
 7380.000000     6.451552 
 7440.000000     6.580368 
 7500.000000     6.705234 
 7560.000000     6.773696 
 7620.000000     6.823516 
 7680.000000     6.860843 
 7740.000000     6.809584 
 7800.000000     6.824502 
 7860.000000     6.930806 
 7920.000000     7.021230 
 7980.000000     7.122430 
 8040.000000     7.234405 
 8100.000000     7.314404 
 8160.000000     7.372111 
 8220.000000     7.482200 
 8280.000000     7.541373 
 8340.000000     7.519761 
 8400.000000     7.533017 
 8460.000000     7.522769 
 8520.000000     7.507352 
 8580.000000     7.541836 
 8640.000000     7.548552 
 8700.000000     7.558063 
 8760.000000     7.592972 
 8820.000000     7.676440 
 8880.000000     7.726111 
 8940.000000     7.755689 
 9000.000000     7.816782 
 9060.000000     7.888022 
 9120.000000     8.008944 
 9180.000000     8.167534 
 9240.000000     8.372951 
 9300.000000     8.601309 
 9360.000000     8.792737 
 9420.000000     8.988817 
 9480.000000     9.162313 
 9540.000000     9.337504 
 9600.000000     9.517575 
 9660.000000     9.694866 
 9720.000000     9.899967 
 9780.000000    10.087836 
 9840.000000    10.290704 
 9900.000000    10.490096 
 9960.000000    10.673845 
10020.000000    10.841895 
10080.000000    11.027730 
10140.000000    11.205536 
10200.000000    11.366457 
10260.000000    11.550987 
10320.000000    11.734188 
10380.000000    11.911262 
10440.000000    12.079707 
10500.000000    12.244019 
10560.000000    12.408610 
10620.000000    12.581976 
10680.000000    12.746573 
10740.000000    12.904656 
10800.000000    13.056331 
10860.000000    13.200662 
10920.000000    13.351250 
10980.000000    13.490154 
11040.000000    13.624005 
11100.000000    13.753340 
11160.000000    13.864857 
11220.000000    13.989431 
11280.000000    14.091913 
11340.000000    14.198253 
11400.000000    14.283504 
11460.000000    14.383699 
11520.000000    14.505490 
11580.000000    14.606098 
11640.000000    14.696984 
11700.000000    14.786067 
11760.000000    14.857364 
11820.000000    14.894388 
11880.000000    14.973749 
11940.000000    15.019970 
12000.000000    15.051460 
12060.000000    15.074542 
12120.000000    15.096414 
12180.000000    15.113938 
12240.000000    15.128061 
12300.000000    15.141248 
12360.000000    15.149679 
12420.000000    15.154191 
12480.000000    15.150458 
12540.000000    15.139806 
12600.000000    15.123630 
12660.000000    15.102209 
12720.000000    15.074437 
12780.000000    15.039600 
12840.000000    14.997884 
12900.000000    14.947898 
12960.000000    14.889232 
13020.000000    14.825180 
13080.000000    14.743772 
13140.000000    14.673092 
13200.000000    14.605156 
13260.000000    14.540104 
13320.000000    14.463190 
13380.000000    14.417467 
13440.000000    14.363060 
13500.000000    14.290038 
13560.000000    14.234626 
13620.000000    14.158868 
13680.000000    14.050436 
13740.000000    13.945669 
13800.000000    13.832558 
13860.000000    13.698520 
13920.000000    13.576684 
13980.000000    13.447490 
14040.000000    13.300720 
14100.000000    13.159108 
14160.000000    13.040111 
14220.000000    12.905435 
14280.000000    12.781074 
14340.000000    12.673289 
14400.000000    12.527123 
14460.000000    12.395196 
14520.000000    12.285747 
14580.000000    12.150893 
14640.000000    12.022215 
14700.000000    11.921273 
14760.000000    11.797808 
14820.000000    11.666388 
14880.000000    11.564321 
14940.000000    11.447566 
15000.000000    11.294188 
15060.000000    11.190414 
15120.000000    11.068588 
15180.000000    10.917805 
15240.000000    10.796714 
15300.000000    10.662977 
15360.000000    10.498220 
15420.000000    10.357961 
15480.000000    10.207493 
15540.000000    10.007955 
15600.000000     9.822206 
15660.000000     9.659730 
15720.000000     9.434724 
15780.000000     9.210383 
15840.000000     8.989188 
15900.000000     8.668531 
15960.000000     8.339429 
16020.000000     8.046704 
16080.000000     7.728332 
16140.000000     7.423030 
16200.000000     7.177724 
16260.000000     6.944233 
16320.000000     6.708768 
16380.000000     6.528524 
16440.000000     6.394476 
16500.000000     6.203947 
16560.000000     6.063376 
16620.000000     5.971226 
16680.000000     5.831019 
16740.000000     5.724006 
16800.000000     5.656332 
16860.000000     5.570620 
16920.000000     5.456551 
16980.000000     5.378238 
17040.000000     5.345556 
17100.000000     5.244579 
17160.000000     5.169050 
17220.000000     5.171330 
17280.000000     5.244362 
17340.000000     5.291141 
17400.000000     5.356386 
17460.000000     5.474816 
17520.000000     5.496789 
17580.000000     5.511824 
17640.000000     5.526394 
17700.000000     5.567289 
17760.000000     5.540559 
17820.000000     5.528830 
17880.000000     5.509840 
17940.000000     5.493992 
18000.000000     5.412355 
18060.000000     5.359540 
18120.000000     5.336374 
18180.000000     5.362296 
18240.000000     5.349738 
18300.000000     5.343048 
18360.000000     5.341337 
18420.000000     5.357082 
18480.000000     5.344083 
18540.000000     5.319326 
18600.000000     5.283320 
18660.000000     5.242305 
18720.000000     5.242674 
18780.000000     5.180493 
18840.000000     5.133571 
18900.000000     5.017703 
18960.000000     4.860589 
19020.000000     4.725612 
19080.000000     4.504215 
19140.000000     4.324770 
19200.000000     4.162839 
19260.000000     4.029054 
19320.000000     3.957629 
19380.000000     3.816969 
19440.000000     3.721361 
19500.000000     3.665291 
19560.000000     3.576329 
19620.000000     3.509487 
19680.000000     3.493463 
19740.000000     3.404711 
19800.000000     3.363921 
19860.000000     3.298424 
19920.000000     3.230995 
19980.000000     3.205339 
20040.000000     3.203503 
20100.000000     3.194053 
20160.000000     3.051603 
20220.000000     2.952865 
20280.000000     2.858479 
20340.000000     2.762977 
20400.000000     2.662237 
20460.000000     2.562753 
20520.000000     2.454483 
20580.000000     2.385557 
20640.000000     2.229841 
20700.000000     2.140016 
20760.000000     2.060972 
20820.000000     1.988196 
20880.000000     1.937951 
20940.000000     1.885017 
21000.000000     1.822469 
21060.000000     1.806259 
21120.000000     1.694016 
21180.000000     1.621814 
21240.000000     1.569910 
21300.000000     1.538705 
21360.000000     1.519469 
21420.000000     1.493480 
21480.000000     1.485585 
21540.000000     1.524112 
21600.000000     1.484778 
21660.000000     1.477347 
21720.000000     1.476851 
21780.000000     1.474817 
21840.000000     1.475108 
21900.000000     1.474216 
21960.000000     1.473599 
22020.000000     1.513955 
22080.000000     1.481163 
22140.000000     1.475738 
22200.000000     1.472819 
22260.000000     1.473954 
22320.000000     1.472520 
22380.000000     1.473319 
22440.000000     1.472530 
22500.000000     1.498026 
22560.000000     1.485965 
22620.000000     1.473647 
22680.000000     1.473408 
22740.000000     1.471603 
22800.000000     1.473080 
22860.000000     1.471584 
22920.000000     1.472468 
22980.000000     1.471702 
23040.000000     1.518101 
23100.000000     1.474919 
23160.000000     1.472386 
23220.000000     1.473111 
23280.000000     1.471286 
23340.000000     1.472795 
23400.000000     1.471364 
23460.000000     1.472511 
23520.000000     1.519873 
23580.000000     1.475603 
23640.000000     1.473416 
23700.000000     1.471918 
23760.000000     1.472741 
23820.000000     1.471143 
23880.000000     1.472837 
23940.000000     1.471531 
24000.000000     1.518690 
24060.000000     1.476304 
24120.000000     1.473169 
24180.000000     1.472323 
24240.000000     1.471621 
24300.000000     1.472808 
24360.000000     1.471502 
24420.000000     1.473078 
24480.000000     1.514336 
24540.000000     1.479618 
24600.000000     1.473242 
24660.000000     1.472781 
24720.000000     1.472401 
24780.000000     1.472071 
24840.000000     1.472676 
24900.000000     1.471545 
24960.000000     1.507581 
25020.000000     1.482115 
25080.000000     1.474995 
25140.000000     1.472333 
25200.000000     1.472975 
25260.000000     1.472365 
25320.000000     1.472286 
25380.000000     1.472931 
25440.000000     1.472028 
25500.000000     1.501845 
25560.000000     1.473917 
25620.000000     1.473638 
25680.000000     1.471829 
25740.000000     1.473207 
25800.000000     1.472435 
25860.000000     1.472813 
25920.000000     1.472759 
25980.000000     1.520735 
26040.000000     1.476339 
26100.000000     1.472788 
26160.000000     1.473707 
26220.000000     1.471689 
26280.000000     1.473039 
26340.000000     1.472187 
26400.000000     1.472966 
26460.000000     1.519785 
26520.000000     1.476585 
26580.000000     1.474352 
26640.000000     1.472290 
26700.000000     1.473697 
26760.000000     1.472385 
26820.000000     1.473624 
26880.000000     1.472282 
26940.000000     1.517484 
27000.000000     1.478812 
27060.000000     1.474046 
27120.000000     1.473648 
27180.000000     1.472369 
27240.000000     1.473647 
27300.000000     1.472126 
27360.000000     1.473818 
27420.000000     1.511145 
27480.000000     1.482558 
27540.000000     1.474799 
27600.000000     1.473876 
27660.000000     1.473552 
27720.000000     1.472554 
27780.000000     1.473486 
27840.000000     1.472024 
27900.000000     1.486544 
27960.000000     1.487402 
28020.000000     1.475740 
28080.000000     1.473319 
28140.000000     1.473642 
28200.000000     1.473306 
28260.000000     1.472793 
28320.000000     1.473885 
28380.000000     1.472524 
28440.000000     1.522972 
28500.000000     1.475014 
28560.000000     1.474656 
28620.000000     1.472958 
28680.000000     1.473640 
28740.000000     1.473392 
28800.000000     1.473457 
28860.000000     1.474079 

[Forcing]
name       = 141133.805000_395446.430000
function   = timeseries
timeInterpolation = linear
quantity   = time
unit       = minutes since 2000-01-01 00:00:00
quantity   = waterlevelbnd
unit       = m
    0.000000     7.470000 
   60.000000     7.693767 
  120.000000     7.731650 
  180.000000     7.794142 
  240.000000     7.821352 
  300.000000     7.847313 
  360.000000     7.886875 
  420.000000     7.913981 
  480.000000     7.938574 
  540.000000     8.022422 
  600.000000     8.413658 
  660.000000     8.721539 
  720.000000     8.998371 
  780.000000     9.203149 
  840.000000     9.133250 
  900.000000     8.960850 
  960.000000     8.880951 
 1020.000000     8.867713 
 1080.000000     8.887683 
 1140.000000     8.905083 
 1200.000000     8.914857 
 1260.000000     8.914478 
 1320.000000     8.912925 
 1380.000000     8.907973 
 1440.000000     8.907783 
 1500.000000     8.910370 
 1560.000000     8.910373 
 1620.000000     8.909765 
 1680.000000     8.904049 
 1740.000000     8.900534 
 1800.000000     8.906545 
 1860.000000     8.905303 
 1920.000000     8.901738 
 1980.000000     8.898093 
 2040.000000     8.896708 
 2100.000000     8.900750 
 2160.000000     8.889622 
 2220.000000     8.897797 
 2280.000000     8.889479 
 2340.000000     8.898522 
 2400.000000     8.891823 
 2460.000000     8.895638 
 2520.000000     8.900876 
 2580.000000     8.903685 
 2640.000000     8.897152 
 2700.000000     8.901676 
 2760.000000     8.895054 
 2820.000000     8.893528 
 2880.000000     8.905006 
 2940.000000     8.892291 
 3000.000000     8.898852 
 3060.000000     8.892037 
 3120.000000     8.894852 
 3180.000000     8.908079 
 3240.000000     8.904139 
 3300.000000     8.894883 
 3360.000000     8.902937 
 3420.000000     8.898198 
 3480.000000     8.900726 
 3540.000000     8.909041 
 3600.000000     8.908108 
 3660.000000     8.909919 
 3720.000000     8.907460 
 3780.000000     8.905954 
 3840.000000     8.904708 
 3900.000000     8.906721 
 3960.000000     8.909705 
 4020.000000     8.912940 
 4080.000000     8.918565 
 4140.000000     8.920450 
 4200.000000     8.924309 
 4260.000000     8.926382 
 4320.000000     8.926180 
 4380.000000     8.920544 
 4440.000000     8.915800 
 4500.000000     8.920948 
 4560.000000     8.921648 
 4620.000000     8.923792 
 4680.000000     8.925131 
 4740.000000     8.926438 
 4800.000000     8.929476 
 4860.000000     8.926640 
 4920.000000     8.933351 
 4980.000000     8.931851 
 5040.000000     8.999064 
 5100.000000     8.954048 
 5160.000000     8.933667 
 5220.000000     8.928195 
 5280.000000     8.919109 
 5340.000000     8.917212 
 5400.000000     8.916272 
 5460.000000     8.913279 
 5520.000000     8.913641 
 5580.000000     8.916749 
 5640.000000     8.925078 
 5700.000000     8.919551 
 5760.000000     8.927957 
 5820.000000     8.937223 
 5880.000000     8.945688 
 5940.000000     8.951589 
 6000.000000     8.957910 
 6060.000000     8.965170 
 6120.000000     8.972813 
 6180.000000     8.978172 
 6240.000000     8.989012 
 6300.000000     9.002926 
 6360.000000     9.013089 
 6420.000000     9.020195 
 6480.000000     9.022874 
 6540.000000     9.025504 
 6600.000000     9.025348 
 6660.000000     9.032348 
 6720.000000     9.041835 
 6780.000000     9.053056 
 6840.000000     9.059674 
 6900.000000     9.066078 
 6960.000000     9.073692 
 7020.000000     9.082035 
 7080.000000     9.097994 
 7140.000000     9.113181 
 7200.000000     9.124247 
 7260.000000     9.136403 
 7320.000000     9.146930 
 7380.000000     9.157458 
 7440.000000     9.170564 
 7500.000000     9.185704 
 7560.000000     9.197589 
 7620.000000     9.209414 
 7680.000000     9.220939 
 7740.000000     9.234577 
 7800.000000     9.241220 
 7860.000000     9.247234 
 7920.000000     9.255325 
 7980.000000     9.261593 
 8040.000000     9.272401 
 8100.000000     9.280080 
 8160.000000     9.284977 
 8220.000000     9.294792 
 8280.000000     9.303767 
 8340.000000     9.312099 
 8400.000000     9.317080 
 8460.000000     9.322337 
 8520.000000     9.331306 
 8580.000000     9.339062 
 8640.000000     9.345662 
 8700.000000     9.351384 
 8760.000000     9.355354 
 8820.000000     9.359497 
 8880.000000     9.364450 
 8940.000000     9.369141 
 9000.000000     9.375681 
 9060.000000     9.386269 
 9120.000000     9.401324 
 9180.000000     9.405235 
 9240.000000     9.410098 
 9300.000000     9.422709 
 9360.000000     9.429219 
 9420.000000     9.451028 
 9480.000000     9.464672 
 9540.000000     9.486202 
 9600.000000     9.503870 
 9660.000000     9.520290 
 9720.000000     9.533093 
 9780.000000     9.551910 
 9840.000000     9.573455 
 9900.000000     9.593459 
 9960.000000     9.614325 
10020.000000     9.635523 
10080.000000     9.658622 
10140.000000     9.690398 
10200.000000     9.700944 
10260.000000     9.718052 
10320.000000     9.729356 
10380.000000     9.740783 
10440.000000     9.750586 
10500.000000     9.760988 
10560.000000     9.769737 
10620.000000     9.778068 
10680.000000     9.786985 
10740.000000     9.793379 
10800.000000     9.800972 
10860.000000     9.805641 
10920.000000     9.813371 
10980.000000     9.817621 
11040.000000     9.819588 
11100.000000     9.826901 
11160.000000     9.828990 
11220.000000     9.836885 
11280.000000     9.841566 
11340.000000     9.848183 
11400.000000     9.854999 
11460.000000     9.858722 
11520.000000     9.868312 
11580.000000     9.870993 
11640.000000     9.878512 
11700.000000     9.883775 
11760.000000     9.888221 
11820.000000     9.890985 
11880.000000     9.898397 
11940.000000     9.900908 
12000.000000     9.907167 
12060.000000     9.913310 
12120.000000     9.917642 
12180.000000     9.918410 
12240.000000     9.924244 
12300.000000     9.924260 
12360.000000     9.929255 
12420.000000     9.930045 
12480.000000     9.934582 
12540.000000     9.936440 
12600.000000     9.938408 
12660.000000     9.941179 
12720.000000     9.941552 
12780.000000     9.944096 
12840.000000     9.943411 
12900.000000     9.944006 
12960.000000     9.946608 
13020.000000     9.944031 
13080.000000     9.945454 
13140.000000     9.947772 
13200.000000     9.946749 
13260.000000     9.944885 
13320.000000     9.945838 
13380.000000     9.942100 
13440.000000     9.940175 
13500.000000     9.940660 
13560.000000     9.938857 
13620.000000     9.935204 
13680.000000     9.932877 
13740.000000     9.932116 
13800.000000     9.928597 
13860.000000     9.926758 
13920.000000     9.924543 
13980.000000     9.923086 
14040.000000     9.921562 
14100.000000     9.917744 
14160.000000     9.914410 
14220.000000     9.909012 
14280.000000     9.903941 
14340.000000     9.901018 
14400.000000     9.896660 
14460.000000     9.894108 
14520.000000     9.886526 
14580.000000     9.881920 
14640.000000     9.877432 
14700.000000     9.873655 
14760.000000     9.864210 
14820.000000     9.857377 
14880.000000     9.852018 
14940.000000     9.846264 
15000.000000     9.835495 
15060.000000     9.827990 
15120.000000     9.823043 
15180.000000     9.811410 
15240.000000     9.803250 
15300.000000     9.795306 
15360.000000     9.784645 
15420.000000     9.775024 
15480.000000     9.765733 
15540.000000     9.753296 
15600.000000     9.743068 
15660.000000     9.732759 
15720.000000     9.717131 
15780.000000     9.702990 
15840.000000     9.689556 
15900.000000     9.669123 
15960.000000     9.651776 
16020.000000     9.630148 
16080.000000     9.607204 
16140.000000     9.584213 
16200.000000     9.552299 
16260.000000     9.522170 
16320.000000     9.488470 
16380.000000     9.456277 
16440.000000     9.422097 
16500.000000     9.386007 
16560.000000     9.354802 
16620.000000     9.317656 
16680.000000     9.289763 
16740.000000     9.256523 
16800.000000     9.235474 
16860.000000     9.207252 
16920.000000     9.192475 
16980.000000     9.171237 
17040.000000     9.162429 
17100.000000     9.147956 
17160.000000     9.145288 
17220.000000     9.141446 
17280.000000     9.128802 
17340.000000     9.117746 
17400.000000     9.109583 
17460.000000     9.103921 
17520.000000     9.101999 
17580.000000     9.103102 
17640.000000     9.104017 
17700.000000     9.104125 
17760.000000     9.103795 
17820.000000     9.104312 
17880.000000     9.105531 
17940.000000     9.108472 
18000.000000     9.114342 
18060.000000     9.113761 
18120.000000     9.117633 
18180.000000     9.109008 
18240.000000     9.102468 
18300.000000     9.099622 
18360.000000     9.096743 
18420.000000     9.094296 
18480.000000     9.093498 
18540.000000     9.093385 
18600.000000     9.090884 
18660.000000     9.084471 
18720.000000     9.083193 
18780.000000     9.081015 
18840.000000     9.073750 
18900.000000     9.069493 
18960.000000     9.068275 
19020.000000     9.060980 
19080.000000     9.053110 
19140.000000     9.048338 
19200.000000     9.032759 
19260.000000     9.017929 
19320.000000     9.007361 
19380.000000     8.988787 
19440.000000     8.970722 
19500.000000     8.953398 
19560.000000     8.937264 
19620.000000     8.923524 
19680.000000     8.908214 
19740.000000     8.904530 
19800.000000     8.906947 
19860.000000     8.913651 
19920.000000     8.906805 
19980.000000     8.904768 
20040.000000     8.912610 
20100.000000     8.904482 
20160.000000     8.906839 
20220.000000     8.908217 
20280.000000     8.905916 
20340.000000     8.907433 
20400.000000     8.902983 
20460.000000     8.898418 
20520.000000     8.899474 
20580.000000     8.899347 
20640.000000     8.898494 
20700.000000     8.903237 
20760.000000     8.897638 
20820.000000     8.893528 
20880.000000     8.893521 
20940.000000     8.890625 
21000.000000     8.890715 
21060.000000     8.895776 
21120.000000     8.893545 
21180.000000     8.892218 
21240.000000     8.892095 
21300.000000     8.891245 
21360.000000     8.893577 
21420.000000     8.901145 
21480.000000     8.895842 
21540.000000     8.894531 
21600.000000     8.896739 
21660.000000     8.898875 
21720.000000     8.899897 
21780.000000     8.904096 
21840.000000     8.898726 
21900.000000     8.896540 
21960.000000     8.896976 
22020.000000     8.899207 
22080.000000     8.900748 
22140.000000     8.904624 
22200.000000     8.901752 
22260.000000     8.897172 
22320.000000     8.896249 
22380.000000     8.898983 
22440.000000     8.900338 
22500.000000     8.899638 
22560.000000     8.904668 
22620.000000     8.900674 
22680.000000     8.898297 
22740.000000     8.899001 
22800.000000     8.899511 
22860.000000     8.900299 
22920.000000     8.904249 
22980.000000     8.898613 
23040.000000     8.898244 
23100.000000     8.900866 
23160.000000     8.900434 
23220.000000     8.900557 
23280.000000     8.904863 
23340.000000     8.897778 
23400.000000     8.898252 
23460.000000     8.899916 
23520.000000     8.899840 
23580.000000     8.901372 
23640.000000     8.906158 
23700.000000     8.898298 
23760.000000     8.898618 
23820.000000     8.900231 
23880.000000     8.899931 
23940.000000     8.900660 
24000.000000     8.905190 
24060.000000     8.899512 
24120.000000     8.900293 
24180.000000     8.899825 
24240.000000     8.900955 
24300.000000     8.901890 
24360.000000     8.905455 
24420.000000     8.898995 
24480.000000     8.898386 
24540.000000     8.899299 
24600.000000     8.902600 
24660.000000     8.902394 
24720.000000     8.905904 
24780.000000     8.898999 
24840.000000     8.899464 
24900.000000     8.899964 
24960.000000     8.901185 
25020.000000     8.901414 
25080.000000     8.907822 
25140.000000     8.900438 
25200.000000     8.898267 
25260.000000     8.898905 
25320.000000     8.901160 
25380.000000     8.901326 
25440.000000     8.908152 
25500.000000     8.900353 
25560.000000     8.898943 
25620.000000     8.901246 
25680.000000     8.901775 
25740.000000     8.900546 
25800.000000     8.907393 
25860.000000     8.900150 
25920.000000     8.898316 
25980.000000     8.900751 
26040.000000     8.902958 
26100.000000     8.902693 
26160.000000     8.908433 
26220.000000     8.899160 
26280.000000     8.897710 
26340.000000     8.900349 
26400.000000     8.901789 
26460.000000     8.902069 
26520.000000     8.910946 
26580.000000     8.899996 
26640.000000     8.898626 
26700.000000     8.900205 
26760.000000     8.900547 
26820.000000     8.902451 
26880.000000     8.911931 
26940.000000     8.898296 
27000.000000     8.898421 
27060.000000     8.901752 
27120.000000     8.901886 
27180.000000     8.902411 
27240.000000     8.911486 
27300.000000     8.898239 
27360.000000     8.897904 
27420.000000     8.900010 
27480.000000     8.902356 
27540.000000     8.904707 
27600.000000     8.907555 
27660.000000     8.902656 
27720.000000     8.899325 
27780.000000     8.899100 
27840.000000     8.902014 
27900.000000     8.903133 
27960.000000     8.906683 
28020.000000     8.904901 
28080.000000     8.901078 
28140.000000     8.899493 
28200.000000     8.901355 
28260.000000     8.902476 
28320.000000     8.909018 
28380.000000     8.901998 
28440.000000     8.899289 
28500.000000     8.901073 
28560.000000     8.903507 
28620.000000     8.902483 
28680.000000     8.909829 
28740.000000     8.900957 
28800.000000     8.897734 
28860.000000     8.900784 

[Forcing]
name       = nieuw9
function   = timeseries
timeInterpolation = linear
quantity   = time
unit       = minutes since 2000-01-01 00:00:00
quantity   = lateral_discharge
unit       = m3/s
    0.000000     0.000000 
   60.000000     0.053760 
  120.000000     0.053760 
  180.000000     0.053760 
  240.000000     0.053760 
  300.000000     0.053760 
  360.000000     0.053760 
  420.000000     0.053760 
  480.000000     0.053760 
  540.000000     0.053760 
  600.000000     0.059600 
  660.000000     0.069840 
  720.000000     0.074210 
  780.000000     0.073650 
  840.000000     0.072570 
  900.000000     0.071480 
  960.000000     0.070450 
 1020.000000     0.070280 
 1080.000000     0.071150 
 1140.000000     0.071160 
 1200.000000     0.070140 
 1260.000000     0.069190 
 1320.000000     0.068290 
 1380.000000     0.067440 
 1440.000000     0.066650 
 1500.000000     0.065900 
 1560.000000     0.065190 
 1620.000000     0.064520 
 1680.000000     0.063900 
 1740.000000     0.063310 
 1800.000000     0.044190 
 1860.000000     0.008462 
 1920.000000     0.007969 
 1980.000000     0.007505 
 2040.000000     0.007068 
 2100.000000     0.006656 
 2160.000000     0.014360 
 2220.000000     0.059670 
 2280.000000     0.024580 
 2340.000000     0.005235 
 2400.000000     0.004930 
 2460.000000     0.004643 
 2520.000000     0.004372 
 2580.000000     0.020290 
 2640.000000     0.003878 
 2700.000000     0.003652 
 2760.000000     0.003439 
 2820.000000     0.011330 
 2880.000000     0.035400 
 2940.000000     0.027140 
 3000.000000     0.002705 
 3060.000000     0.002547 
 3120.000000     0.002399 
 3180.000000     0.056020 
 3240.000000     0.037330 
 3300.000000     0.018180 
 3360.000000     0.001887 
 3420.000000     0.001777 
 3480.000000     0.001673 
 3540.000000     0.001576 
 3600.000000     0.001484 
 3660.000000     0.055160 
 3720.000000     0.055080 
 3780.000000     0.055000 
 3840.000000     0.054930 
 3900.000000     0.054860 
 3960.000000     0.054800 
 4020.000000     0.054740 
 4080.000000     0.054680 
 4140.000000     0.054630 
 4200.000000     0.054580 
 4260.000000     0.054530 
 4320.000000     0.054490 
 4380.000000     0.054440 
 4440.000000     0.054400 
 4500.000000     0.054370 
 4560.000000     0.054330 
 4620.000000     0.054300 
 4680.000000     0.054270 
 4740.000000     0.054240 
 4800.000000     0.054210 
 4860.000000     0.008931 
 4920.000000     0.000396 
 4980.000000     0.000373 
 5040.000000     0.000351 
 5100.000000     0.000331 
 5160.000000     0.000312 
 5220.000000     0.000293 
 5280.000000     0.000276 
 5340.000000     0.000260 
 5400.000000     0.054010 
 5460.000000     0.053990 
 5520.000000     0.053980 
 5580.000000     0.000673 
 5640.000000     0.032540 
 5700.000000     0.024440 
 5760.000000     0.032520 
 5820.000000     0.053920 
 5880.000000     0.053920 
 5940.000000     0.053910 
 6000.000000     0.053900 
 6060.000000     0.053890 
 6120.000000     0.053880 
 6180.000000     0.053880 
 6240.000000     0.053870 
 6300.000000     0.053860 
 6360.000000     0.057200 
 6420.000000     0.066780 
 6480.000000     0.075350 
 6540.000000     0.078010 
 6600.000000     0.077610 
 6660.000000     0.076220 
 6720.000000     0.074910 
 6780.000000     0.073680 
 6840.000000     0.072520 
 6900.000000     0.071430 
 6960.000000     0.070400 
 7020.000000     0.069430 
 7080.000000     0.068520 
 7140.000000     0.067660 
 7200.000000     0.066850 
 7260.000000     0.066090 
 7320.000000     0.065370 
 7380.000000     0.064690 
 7440.000000     0.064050 
 7500.000000     0.063450 
 7560.000000     0.042400 
 7620.000000     0.008595 
 7680.000000     0.061860 
 7740.000000     0.061390 
 7800.000000     0.060940 
 7860.000000     0.060520 
 7920.000000     0.060130 
 7980.000000     0.020260 
 8040.000000     0.059410 
 8100.000000     0.059080 
 8160.000000     0.018800 
 8220.000000     0.004715 
 8280.000000     0.004441 
 8340.000000     0.004182 
 8400.000000     0.003938 
 8460.000000     0.003709 
 8520.000000     0.003493 
 8580.000000     0.003289 
 8640.000000     0.011190 
 8700.000000     0.019090 
 8760.000000     0.002747 
 8820.000000     0.002587 
 8880.000000     0.002436 
 8940.000000     0.002294 
 9000.000000     0.026420 
 9060.000000     0.055800 
 9120.000000     0.058120 
 9180.000000     0.063200 
 9240.000000     0.065520 
 9300.000000     0.064830 
 9360.000000     0.064190 
 9420.000000     0.063580 
 9480.000000     0.063010 
 9540.000000     0.062470 
 9600.000000     0.066300 
 9660.000000     0.069830 
 9720.000000     0.068900 
 9780.000000     0.068010 
 9840.000000     0.067180 
 9900.000000     0.066400 
 9960.000000     0.065670 
10020.000000     0.064970 
10080.000000     0.064320 
10140.000000     0.092320 
10200.000000     0.128600 
10260.000000     0.154300 
10320.000000     0.189300 
10380.000000     0.210900 
10440.000000     0.211900 
10500.000000     0.204500 
10560.000000     0.195700 
10620.000000     0.187400 
10680.000000     0.179600 
10740.000000     0.172300 
10800.000000     0.165400 
10860.000000     0.158900 
10920.000000     0.152800 
10980.000000     0.147000 
11040.000000     0.141600 
11100.000000     0.136500 
11160.000000     0.131600 
11220.000000     0.127100 
11280.000000     0.122800 
11340.000000     0.118800 
11400.000000     0.115000 
11460.000000     0.111400 
11520.000000     0.108100 
11580.000000     0.104900 
11640.000000     0.095990 
11700.000000     0.099130 
11760.000000     0.045570 
11820.000000     0.048320 
11880.000000     0.045980 
11940.000000     0.089450 
12000.000000     0.068800 
12060.000000     0.085410 
12120.000000     0.083570 
12180.000000     0.081830 
12240.000000     0.080200 
12300.000000     0.078660 
12360.000000     0.077200 
12420.000000     0.075840 
12480.000000     0.074550 
12540.000000     0.073340 
12600.000000     0.072200 
12660.000000     0.071130 
12720.000000     0.070120 
12780.000000     0.069160 
12840.000000     0.068270 
12900.000000     0.067420 
12960.000000     0.066620 
13020.000000     0.033460 
13080.000000     0.065170 
13140.000000     0.064510 
13200.000000     0.063880 
13260.000000     0.063290 
13320.000000     0.062730 
13380.000000     0.062210 
13440.000000     0.061720 
13500.000000     0.035540 
13560.000000     0.007056 
13620.000000     0.006645 
13680.000000     0.006258 
13740.000000     0.005893 
13800.000000     0.005550 
13860.000000     0.005226 
13920.000000     0.004922 
13980.000000     0.004635 
14040.000000     0.004365 
14100.000000     0.044550 
14160.000000     0.011960 
14220.000000     0.003646 
14280.000000     0.003433 
14340.000000     0.003233 
14400.000000     0.003045 
14460.000000     0.002867 
14520.000000     0.002700 
14580.000000     0.002543 
14640.000000     0.002395 
14700.000000     0.002255 
14760.000000     0.002124 
14820.000000     0.002000 
14880.000000     0.001884 
14940.000000     0.001774 
15000.000000     0.001671 
15060.000000     0.001573 
15120.000000     0.001482 
15180.000000     0.001395 
15240.000000     0.001314 
15300.000000     0.001237 
15360.000000     0.001165 
15420.000000     0.001097 
15480.000000     0.001709 
15540.000000     0.001649 
15600.000000     0.001592 
15660.000000     0.001539 
15720.000000     0.001489 
15780.000000     0.001441 
15840.000000     0.001397 
15900.000000     0.001355 
15960.000000     0.001315 
16020.000000     0.001278 
16080.000000     0.001243 
16140.000000     0.001210 
16200.000000     0.001179 
16260.000000     0.001149 
16320.000000     0.001122 
16380.000000     0.001096 
16440.000000     0.001071 
16500.000000     0.001048 
16560.000000     0.001027 
16620.000000     0.001006 
16680.000000     0.000987 
16740.000000     0.000969 
16800.000000     0.000952 
16860.000000     0.000936 
16920.000000     0.000245 
16980.000000     0.000230 
17040.000000     0.000217 
17100.000000     0.040640 
17160.000000     0.053960 
17220.000000     0.053950 
17280.000000     0.053930 
17340.000000     0.053920 
17400.000000     0.053920 
17460.000000     0.053910 
17520.000000     0.053900 
17580.000000     0.053890 
17640.000000     0.053880 
17700.000000     0.053880 
17760.000000     0.053870 
17820.000000     0.053860 
17880.000000     0.053860 
17940.000000     0.053850 
18000.000000     0.053850 
18060.000000     0.053840 
18120.000000     0.053840 
18180.000000     0.053830 
18240.000000     0.053830 
18300.000000     0.053830 
18360.000000     0.053820 
18420.000000     0.053820 
18480.000000     0.053820 
18540.000000     0.053810 
18600.000000     0.053810 
18660.000000     0.053810 
18720.000000     0.049910 
18780.000000     0.000038 
18840.000000     0.000036 
18900.000000     0.000034 
18960.000000     0.000032 
19020.000000     0.000030 
19080.000000     0.000028 
19140.000000     0.000027 
19200.000000     0.000025 
19260.000000     0.000024 
19320.000000     0.000022 
19380.000000     0.000021 
19440.000000     0.000020 
19500.000000     0.000019 
19560.000000     0.000017 
19620.000000     0.000016 
19680.000000     0.000015 
19740.000000     0.000015 
19800.000000     0.000014 
19860.000000     0.000013 
19920.000000     0.032360 
19980.000000     0.000011 
20040.000000     0.000011 
20100.000000     0.000010 
20160.000000     0.000010 
20220.000000     0.000009 
20280.000000     0.000008 
20340.000000     0.000008 
20400.000000     0.000008 
20460.000000     0.000007 
20520.000000     0.000007 
20580.000000     0.000006 
20640.000000     0.000006 
20700.000000     0.000006 
20760.000000     0.000005 
20820.000000     0.000005 
20880.000000     0.000005 
20940.000000     0.000004 
21000.000000     0.000004 
21060.000000     0.000004 
21120.000000     0.000004 
21180.000000     0.000003 
21240.000000     0.000003 
21300.000000     0.000003 
21360.000000     0.000003 
21420.000000     0.000003 
21480.000000     0.000003 
21540.000000     0.000002 
21600.000000     0.000002 
21660.000000     0.000002 
21720.000000     0.000002 
21780.000000     0.000002 
21840.000000     0.000002 
21900.000000     0.000002 
21960.000000     0.000002 
22020.000000     0.000001 
22080.000000     0.000001 
22140.000000     0.000001 
22200.000000     0.000001 
22260.000000     0.000001 
22320.000000     0.000001 
22380.000000     0.000001 
22440.000000     0.000001 
22500.000000     0.000001 
22560.000000     0.000001 
22620.000000     0.000001 
22680.000000     0.000001 
22740.000000     0.000001 
22800.000000     0.000001 
22860.000000     0.000001 
22920.000000     0.000001 
22980.000000     0.000001 
23040.000000     0.000001 
23100.000000     0.000001 
23160.000000     0.000000 
23220.000000     0.000000 
23280.000000     0.000000 
23340.000000     0.000000 
23400.000000     0.000000 
23460.000000     0.000000 
23520.000000     0.000000 
23580.000000     0.000000 
23640.000000     0.000000 
23700.000000     0.000000 
23760.000000     0.000000 
23820.000000     0.000000 
23880.000000     0.000000 
23940.000000     0.000000 
24000.000000     0.000000 
24060.000000     0.000000 
24120.000000     0.000000 
24180.000000     0.000000 
24240.000000     0.000000 
24300.000000     0.000000 
24360.000000     0.000000 
24420.000000     0.000000 
24480.000000     0.000000 
24540.000000     0.000000 
24600.000000     0.000000 
24660.000000     0.000000 
24720.000000     0.000000 
24780.000000     0.000000 
24840.000000     0.000000 
24900.000000     0.000000 
24960.000000     0.000000 
25020.000000     0.000000 
25080.000000     0.000000 
25140.000000     0.000000 
25200.000000     0.000000 
25260.000000     0.000000 
25320.000000     0.000000 
25380.000000     0.000000 
25440.000000     0.000000 
25500.000000     0.000000 
25560.000000     0.000000 
25620.000000     0.000000 
25680.000000     0.000000 
25740.000000     0.000000 
25800.000000     0.000000 
25860.000000     0.000000 
25920.000000     0.000000 
25980.000000     0.000000 
26040.000000     0.000000 
26100.000000     0.000000 
26160.000000     0.000000 
26220.000000     0.000000 
26280.000000     0.000000 
26340.000000     0.000000 
26400.000000     0.000000 
26460.000000     0.000000 
26520.000000     0.000000 
26580.000000     0.000000 
26640.000000     0.000000 
26700.000000     0.000000 
26760.000000     0.000000 
26820.000000     0.000000 
26880.000000     0.000000 
26940.000000     0.000000 
27000.000000     0.000000 
27060.000000     0.000000 
27120.000000     0.000000 
27180.000000     0.000000 
27240.000000     0.000000 
27300.000000     0.000000 
27360.000000     0.000000 
27420.000000     0.000000 
27480.000000     0.000000 
27540.000000     0.000000 
27600.000000     0.000000 
27660.000000     0.000000 
27720.000000     0.000000 
27780.000000     0.000000 
27840.000000     0.000000 
27900.000000     0.000000 
27960.000000     0.000000 
28020.000000     0.000000 
28080.000000     0.000000 
28140.000000     0.000000 
28200.000000     0.000000 
28260.000000     0.000000 
28320.000000     0.000000 
28380.000000     0.000000 
28440.000000     0.000000 
28500.000000     0.000000 
28560.000000     0.000000 
28620.000000     0.000000 
28680.000000     0.000000 
28740.000000     0.000000 
28800.000000     0.000000 
28860.000000     0.000000 

[Forcing]
name       = lat_871
function   = timeseries
timeInterpolation = linear
quantity   = time
unit       = minutes since 2000-01-01 00:00:00
quantity   = lateral_discharge
unit       = m3/s
    0.000000     0.000000 
   60.000000     0.000098 
  120.000000     0.000104 
  180.000000     0.000139 
  240.000000     0.000142 
  300.000000     0.000146 
  360.000000     0.000148 
  420.000000     0.000151 
  480.000000     0.000171 
  540.000000     0.000176 
  600.000000     0.000180 
  660.000000     0.000186 
  720.000000     0.000191 
  780.000000     0.000196 
  840.000000     0.000206 
  900.000000     0.000226 
  960.000000     0.000230 
 1020.000000     0.000234 
 1080.000000     0.000238 
 1140.000000     0.000242 
 1200.000000     0.000246 
 1260.000000     0.000250 
 1320.000000     0.000254 
 1380.000000     0.000258 
 1440.000000     0.000265 
 1500.000000     0.000271 
 1560.000000     0.000275 
 1620.000000     0.000277 
 1680.000000     0.000281 
 1740.000000     0.000287 
 1800.000000     0.000294 
 1860.000000     0.000302 
 1920.000000     0.000310 
 1980.000000     0.000319 
 2040.000000     0.000326 
 2100.000000     0.000335 
 2160.000000     0.000343 
 2220.000000     0.000348 
 2280.000000     0.000353 
 2340.000000     0.000358 
 2400.000000     0.000362 
 2460.000000     0.000366 
 2520.000000     0.000371 
 2580.000000     0.000376 
 2640.000000     0.000380 
 2700.000000     0.000385 
 2760.000000     0.000391 
 2820.000000     0.000398 
 2880.000000     0.000405 
 2940.000000     0.000412 
 3000.000000     0.000419 
 3060.000000     0.000425 
 3120.000000     0.000432 
 3180.000000     0.000441 
 3240.000000     0.000449 
 3300.000000     0.000457 
 3360.000000     0.000465 
 3420.000000     0.000470 
 3480.000000     0.000474 
 3540.000000     0.000480 
 3600.000000     0.000484 
 3660.000000     0.000489 
 3720.000000     0.000494 
 3780.000000     0.000499 
 3840.000000     0.000505 
 3900.000000     0.000510 
 3960.000000     0.000515 
 4020.000000     0.000519 
 4080.000000     0.000524 
 4140.000000     0.000531 
 4200.000000     0.000537 
 4260.000000     0.000544 
 4320.000000     0.000550 
 4380.000000     0.000558 
 4440.000000     0.000564 
 4500.000000     0.000572 
 4560.000000     0.000581 
 4620.000000     0.000591 
 4680.000000     0.000599 
 4740.000000     0.000607 
 4800.000000     0.000613 
 4860.000000     0.000622 
 4920.000000     0.000631 
 4980.000000     0.000640 
 5040.000000     0.000651 
 5100.000000     0.000660 
 5160.000000     0.000669 
 5220.000000     0.000677 
 5280.000000     0.000686 
 5340.000000     0.000694 
 5400.000000     0.000702 
 5460.000000     0.000710 
 5520.000000     0.000718 
 5580.000000     0.000727 
 5640.000000     0.000737 
 5700.000000     0.000747 
 5760.000000     0.000758 
 5820.000000     0.000767 
 5880.000000     0.000778 
 5940.000000     0.000787 
 6000.000000     0.000794 
 6060.000000     0.000807 
 6120.000000     0.000817 
 6180.000000     0.000829 
 6240.000000     0.000842 
 6300.000000     0.000855 
 6360.000000     0.000868 
 6420.000000     0.000882 
 6480.000000     0.000896 
 6540.000000     0.000912 
 6600.000000     0.000926 
 6660.000000     0.000942 
 6720.000000     0.000955 
 6780.000000     0.000969 
 6840.000000     0.000984 
 6900.000000     0.000994 
 6960.000000     0.001007 
 7020.000000     0.001021 
 7080.000000     0.001036 
 7140.000000     0.001048 
 7200.000000     0.001061 
 7260.000000     0.001075 
 7320.000000     0.001090 
 7380.000000     0.001103 
 7440.000000     0.001119 
 7500.000000     0.001132 
 7560.000000     0.001145 
 7620.000000     0.001162 
 7680.000000     0.001180 
 7740.000000     0.001197 
 7800.000000     0.001211 
 7860.000000     0.001229 
 7920.000000     0.001245 
 7980.000000     0.001266 
 8040.000000     0.001282 
 8100.000000     0.001302 
 8160.000000     0.001320 
 8220.000000     0.001339 
 8280.000000     0.001366 
 8340.000000     0.001390 
 8400.000000     0.001415 
 8460.000000     0.001442 
 8520.000000     0.001465 
 8580.000000     0.001489 
 8640.000000     0.001519 
 8700.000000     0.001547 
 8760.000000     0.001585 
 8820.000000     0.001619 
 8880.000000     0.001647 
 8940.000000     0.001679 
 9000.000000     0.001714 
 9060.000000     0.001764 
 9120.000000     0.001809 
 9180.000000     0.001860 
 9240.000000     0.001936 
 9300.000000     0.002003 
 9360.000000     0.002076 
 9420.000000     0.002168 
 9480.000000     0.002280 
 9540.000000     0.002371 
 9600.000000     0.002464 
 9660.000000     0.002585 
 9720.000000     0.002723 
 9780.000000     0.002903 
 9840.000000     0.003111 
 9900.000000     0.003235 
 9960.000000     0.003384 
10020.000000     0.003587 
10080.000000     0.003719 
10140.000000     0.003802 
10200.000000     0.003745 
10260.000000     0.003642 
10320.000000     0.003510 
10380.000000     0.003395 
10440.000000     0.003295 
10500.000000     0.003199 
10560.000000     0.003134 
10620.000000     0.003058 
10680.000000     0.002964 
10740.000000     0.002883 
10800.000000     0.002798 
10860.000000     0.002724 
10920.000000     0.002653 
10980.000000     0.002580 
11040.000000     0.002516 
11100.000000     0.002455 
11160.000000     0.002393 
11220.000000     0.002347 
11280.000000     0.002301 
11340.000000     0.002254 
11400.000000     0.002209 
11460.000000     0.002175 
11520.000000     0.002143 
11580.000000     0.002114 
11640.000000     0.002084 
11700.000000     0.002058 
11760.000000     0.002029 
11820.000000     0.002003 
11880.000000     0.001982 
11940.000000     0.001950 
12000.000000     0.001922 
12060.000000     0.001894 
12120.000000     0.001873 
12180.000000     0.001854 
12240.000000     0.001833 
12300.000000     0.001808 
12360.000000     0.001786 
12420.000000     0.001762 
12480.000000     0.001738 
12540.000000     0.001712 
12600.000000     0.001691 
12660.000000     0.001669 
12720.000000     0.001645 
12780.000000     0.001628 
12840.000000     0.001606 
12900.000000     0.001587 
12960.000000     0.001573 
13020.000000     0.001556 
13080.000000     0.001542 
13140.000000     0.001522 
13200.000000     0.001507 
13260.000000     0.001492 
13320.000000     0.001476 
13380.000000     0.001463 
13440.000000     0.001446 
13500.000000     0.001428 
13560.000000     0.001414 
13620.000000     0.001397 
13680.000000     0.001381 
13740.000000     0.001367 
13800.000000     0.001352 
13860.000000     0.001339 
13920.000000     0.001328 
13980.000000     0.001317 
14040.000000     0.001309 
14100.000000     0.001299 
14160.000000     0.001286 
14220.000000     0.001277 
14280.000000     0.001265 
14340.000000     0.001253 
14400.000000     0.001241 
14460.000000     0.001230 
14520.000000     0.001218 
14580.000000     0.001207 
14640.000000     0.001197 
14700.000000     0.001187 
14760.000000     0.001174 
14820.000000     0.001163 
14880.000000     0.001155 
14940.000000     0.001144 
15000.000000     0.001135 
15060.000000     0.001124 
15120.000000     0.001114 
15180.000000     0.001106 
15240.000000     0.001097 
15300.000000     0.001086 
15360.000000     0.001076 
15420.000000     0.001066 
15480.000000     0.001056 
15540.000000     0.001047 
15600.000000     0.001038 
15660.000000     0.001025 
15720.000000     0.001015 
15780.000000     0.001001 
15840.000000     0.000989 
15900.000000     0.000977 
15960.000000     0.000964 
16020.000000     0.000952 
16080.000000     0.000942 
16140.000000     0.000928 
16200.000000     0.000917 
16260.000000     0.000907 
16320.000000     0.000896 
16380.000000     0.000885 
16440.000000     0.000877 
16500.000000     0.000869 
16560.000000     0.000857 
16620.000000     0.000843 
16680.000000     0.000829 
16740.000000     0.000818 
16800.000000     0.000807 
16860.000000     0.000796 
16920.000000     0.000785 
16980.000000     0.000774 
17040.000000     0.000763 
17100.000000     0.000754 
17160.000000     0.000745 
17220.000000     0.000737 
17280.000000     0.000727 
17340.000000     0.000718 
17400.000000     0.000709 
17460.000000     0.000700 
17520.000000     0.000689 
17580.000000     0.000679 
17640.000000     0.000670 
17700.000000     0.000661 
17760.000000     0.000650 
17820.000000     0.000639 
17880.000000     0.000630 
17940.000000     0.000622 
18000.000000     0.000614 
18060.000000     0.000607 
18120.000000     0.000598 
18180.000000     0.000586 
18240.000000     0.000576 
18300.000000     0.000567 
18360.000000     0.000558 
18420.000000     0.000548 
18480.000000     0.000539 
18540.000000     0.000530 
18600.000000     0.000521 
18660.000000     0.000512 
18720.000000     0.000505 
18780.000000     0.000497 
18840.000000     0.000487 
18900.000000     0.000478 
18960.000000     0.000468 
19020.000000     0.000461 
19080.000000     0.000454 
19140.000000     0.000445 
19200.000000     0.000433 
19260.000000     0.000420 
19320.000000     0.000405 
19380.000000     0.000391 
19440.000000     0.000382 
19500.000000     0.000376 
19560.000000     0.000369 
19620.000000     0.000360 
19680.000000     0.000349 
19740.000000     0.000338 
19800.000000     0.000329 
19860.000000     0.000322 
19920.000000     0.000314 
19980.000000     0.000305 
20040.000000     0.000296 
20100.000000     0.000284 
20160.000000     0.000267 
20220.000000     0.000253 
20280.000000     0.000253 
20340.000000     0.000253 
20400.000000     0.000253 
20460.000000     0.000253 
20520.000000     0.000253 
20580.000000     0.000253 
20640.000000     0.000253 
20700.000000     0.000253 
20760.000000     0.000253 
20820.000000     0.000253 
20880.000000     0.000253 
20940.000000     0.000253 
21000.000000     0.000253 
21060.000000     0.000253 
21120.000000     0.000253 
21180.000000     0.000253 
21240.000000     0.000253 
21300.000000     0.000253 
21360.000000     0.000253 
21420.000000     0.000253 
21480.000000     0.000253 
21540.000000     0.000253 
21600.000000     0.000253 
21660.000000     0.000253 
21720.000000     0.000253 
21780.000000     0.000253 
21840.000000     0.000253 
21900.000000     0.000253 
21960.000000     0.000253 
22020.000000     0.000253 
22080.000000     0.000253 
22140.000000     0.000253 
22200.000000     0.000253 
22260.000000     0.000253 
22320.000000     0.000253 
22380.000000     0.000253 
22440.000000     0.000253 
22500.000000     0.000253 
22560.000000     0.000253 
22620.000000     0.000253 
22680.000000     0.000253 
22740.000000     0.000253 
22800.000000     0.000253 
22860.000000     0.000253 
22920.000000     0.000253 
22980.000000     0.000253 
23040.000000     0.000253 
23100.000000     0.000253 
23160.000000     0.000253 
23220.000000     0.000253 
23280.000000     0.000253 
23340.000000     0.000253 
23400.000000     0.000253 
23460.000000     0.000253 
23520.000000     0.000253 
23580.000000     0.000253 
23640.000000     0.000253 
23700.000000     0.000253 
23760.000000     0.000253 
23820.000000     0.000253 
23880.000000     0.000253 
23940.000000     0.000253 
24000.000000     0.000253 
24060.000000     0.000253 
24120.000000     0.000253 
24180.000000     0.000253 
24240.000000     0.000253 
24300.000000     0.000253 
24360.000000     0.000253 
24420.000000     0.000253 
24480.000000     0.000253 
24540.000000     0.000253 
24600.000000     0.000253 
24660.000000     0.000253 
24720.000000     0.000253 
24780.000000     0.000253 
24840.000000     0.000253 
24900.000000     0.000253 
24960.000000     0.000253 
25020.000000     0.000253 
25080.000000     0.000253 
25140.000000     0.000253 
25200.000000     0.000253 
25260.000000     0.000253 
25320.000000     0.000253 
25380.000000     0.000253 
25440.000000     0.000253 
25500.000000     0.000253 
25560.000000     0.000253 
25620.000000     0.000253 
25680.000000     0.000253 
25740.000000     0.000253 
25800.000000     0.000253 
25860.000000     0.000253 
25920.000000     0.000253 
25980.000000     0.000253 
26040.000000     0.000253 
26100.000000     0.000253 
26160.000000     0.000253 
26220.000000     0.000253 
26280.000000     0.000253 
26340.000000     0.000253 
26400.000000     0.000253 
26460.000000     0.000253 
26520.000000     0.000253 
26580.000000     0.000253 
26640.000000     0.000253 
26700.000000     0.000253 
26760.000000     0.000253 
26820.000000     0.000253 
26880.000000     0.000253 
26940.000000     0.000253 
27000.000000     0.000253 
27060.000000     0.000253 
27120.000000     0.000253 
27180.000000     0.000253 
27240.000000     0.000253 
27300.000000     0.000253 
27360.000000     0.000253 
27420.000000     0.000253 
27480.000000     0.000253 
27540.000000     0.000253 
27600.000000     0.000253 
27660.000000     0.000253 
27720.000000     0.000253 
27780.000000     0.000253 
27840.000000     0.000253 
27900.000000     0.000253 
27960.000000     0.000253 
28020.000000     0.000253 
28080.000000     0.000253 
28140.000000     0.000253 
28200.000000     0.000253 
28260.000000     0.000253 
28320.000000     0.000253 
28380.000000     0.000253 
28440.000000     0.000253 
28500.000000     0.000253 
28560.000000     0.000253 
28620.000000     0.000253 
28680.000000     0.000253 
28740.000000     0.000253 
28800.000000     0.000253 
28860.000000     0.000253 

[Forcing]
name       = lat_872
function   = timeseries
timeInterpolation = linear
quantity   = time
unit       = minutes since 2000-01-01 00:00:00
quantity   = lateral_discharge
unit       = m3/s
    0.000000     0.000000 
   60.000000     0.000075 
  120.000000     0.000079 
  180.000000     0.000107 
  240.000000     0.000109 
  300.000000     0.000112 
  360.000000     0.000114 
  420.000000     0.000116 
  480.000000     0.000131 
  540.000000     0.000135 
  600.000000     0.000138 
  660.000000     0.000142 
  720.000000     0.000146 
  780.000000     0.000150 
  840.000000     0.000158 
  900.000000     0.000173 
  960.000000     0.000176 
 1020.000000     0.000179 
 1080.000000     0.000183 
 1140.000000     0.000186 
 1200.000000     0.000188 
 1260.000000     0.000191 
 1320.000000     0.000194 
 1380.000000     0.000198 
 1440.000000     0.000203 
 1500.000000     0.000208 
 1560.000000     0.000210 
 1620.000000     0.000212 
 1680.000000     0.000215 
 1740.000000     0.000220 
 1800.000000     0.000225 
 1860.000000     0.000232 
 1920.000000     0.000238 
 1980.000000     0.000244 
 2040.000000     0.000250 
 2100.000000     0.000257 
 2160.000000     0.000263 
 2220.000000     0.000266 
 2280.000000     0.000270 
 2340.000000     0.000274 
 2400.000000     0.000278 
 2460.000000     0.000281 
 2520.000000     0.000284 
 2580.000000     0.000288 
 2640.000000     0.000292 
 2700.000000     0.000295 
 2760.000000     0.000300 
 2820.000000     0.000305 
 2880.000000     0.000310 
 2940.000000     0.000315 
 3000.000000     0.000320 
 3060.000000     0.000326 
 3120.000000     0.000331 
 3180.000000     0.000338 
 3240.000000     0.000344 
 3300.000000     0.000350 
 3360.000000     0.000356 
 3420.000000     0.000360 
 3480.000000     0.000363 
 3540.000000     0.000367 
 3600.000000     0.000371 
 3660.000000     0.000375 
 3720.000000     0.000378 
 3780.000000     0.000382 
 3840.000000     0.000387 
 3900.000000     0.000391 
 3960.000000     0.000394 
 4020.000000     0.000397 
 4080.000000     0.000402 
 4140.000000     0.000407 
 4200.000000     0.000411 
 4260.000000     0.000417 
 4320.000000     0.000421 
 4380.000000     0.000427 
 4440.000000     0.000432 
 4500.000000     0.000438 
 4560.000000     0.000445 
 4620.000000     0.000452 
 4680.000000     0.000458 
 4740.000000     0.000465 
 4800.000000     0.000470 
 4860.000000     0.000476 
 4920.000000     0.000483 
 4980.000000     0.000491 
 5040.000000     0.000499 
 5100.000000     0.000505 
 5160.000000     0.000512 
 5220.000000     0.000519 
 5280.000000     0.000525 
 5340.000000     0.000532 
 5400.000000     0.000538 
 5460.000000     0.000544 
 5520.000000     0.000550 
 5580.000000     0.000557 
 5640.000000     0.000564 
 5700.000000     0.000572 
 5760.000000     0.000581 
 5820.000000     0.000588 
 5880.000000     0.000596 
 5940.000000     0.000603 
 6000.000000     0.000608 
 6060.000000     0.000618 
 6120.000000     0.000626 
 6180.000000     0.000635 
 6240.000000     0.000645 
 6300.000000     0.000655 
 6360.000000     0.000665 
 6420.000000     0.000675 
 6480.000000     0.000686 
 6540.000000     0.000699 
 6600.000000     0.000709 
 6660.000000     0.000721 
 6720.000000     0.000732 
 6780.000000     0.000742 
 6840.000000     0.000753 
 6900.000000     0.000761 
 6960.000000     0.000771 
 7020.000000     0.000782 
 7080.000000     0.000793 
 7140.000000     0.000803 
 7200.000000     0.000813 
 7260.000000     0.000823 
 7320.000000     0.000835 
 7380.000000     0.000845 
 7440.000000     0.000857 
 7500.000000     0.000867 
 7560.000000     0.000877 
 7620.000000     0.000890 
 7680.000000     0.000904 
 7740.000000     0.000917 
 7800.000000     0.000928 
 7860.000000     0.000941 
 7920.000000     0.000953 
 7980.000000     0.000970 
 8040.000000     0.000982 
 8100.000000     0.000998 
 8160.000000     0.001011 
 8220.000000     0.001025 
 8280.000000     0.001046 
 8340.000000     0.001064 
 8400.000000     0.001084 
 8460.000000     0.001104 
 8520.000000     0.001122 
 8580.000000     0.001140 
 8640.000000     0.001164 
 8700.000000     0.001185 
 8760.000000     0.001214 
 8820.000000     0.001240 
 8880.000000     0.001261 
 8940.000000     0.001286 
 9000.000000     0.001313 
 9060.000000     0.001351 
 9120.000000     0.001386 
 9180.000000     0.001424 
 9240.000000     0.001483 
 9300.000000     0.001534 
 9360.000000     0.001590 
 9420.000000     0.001661 
 9480.000000     0.001746 
 9540.000000     0.001816 
 9600.000000     0.001887 
 9660.000000     0.001980 
 9720.000000     0.002086 
 9780.000000     0.002223 
 9840.000000     0.002383 
 9900.000000     0.002478 
 9960.000000     0.002592 
10020.000000     0.002748 
10080.000000     0.002848 
10140.000000     0.002912 
10200.000000     0.002868 
10260.000000     0.002789 
10320.000000     0.002688 
10380.000000     0.002601 
10440.000000     0.002524 
10500.000000     0.002450 
10560.000000     0.002401 
10620.000000     0.002342 
10680.000000     0.002270 
10740.000000     0.002208 
10800.000000     0.002143 
10860.000000     0.002087 
10920.000000     0.002032 
10980.000000     0.001976 
11040.000000     0.001927 
11100.000000     0.001880 
11160.000000     0.001833 
11220.000000     0.001798 
11280.000000     0.001763 
11340.000000     0.001726 
11400.000000     0.001692 
11460.000000     0.001666 
11520.000000     0.001642 
11580.000000     0.001619 
11640.000000     0.001596 
11700.000000     0.001576 
11760.000000     0.001554 
11820.000000     0.001534 
11880.000000     0.001518 
11940.000000     0.001494 
12000.000000     0.001472 
12060.000000     0.001450 
12120.000000     0.001435 
12180.000000     0.001420 
12240.000000     0.001404 
12300.000000     0.001385 
12360.000000     0.001368 
12420.000000     0.001349 
12480.000000     0.001331 
12540.000000     0.001312 
12600.000000     0.001295 
12660.000000     0.001278 
12720.000000     0.001260 
12780.000000     0.001247 
12840.000000     0.001230 
12900.000000     0.001216 
12960.000000     0.001204 
13020.000000     0.001192 
13080.000000     0.001181 
13140.000000     0.001166 
13200.000000     0.001154 
13260.000000     0.001143 
13320.000000     0.001131 
13380.000000     0.001121 
13440.000000     0.001108 
13500.000000     0.001094 
13560.000000     0.001083 
13620.000000     0.001070 
13680.000000     0.001057 
13740.000000     0.001047 
13800.000000     0.001036 
13860.000000     0.001026 
13920.000000     0.001017 
13980.000000     0.001008 
14040.000000     0.001002 
14100.000000     0.000995 
14160.000000     0.000985 
14220.000000     0.000978 
14280.000000     0.000969 
14340.000000     0.000959 
14400.000000     0.000951 
14460.000000     0.000942 
14520.000000     0.000933 
14580.000000     0.000925 
14640.000000     0.000917 
14700.000000     0.000909 
14760.000000     0.000899 
14820.000000     0.000891 
14880.000000     0.000884 
14940.000000     0.000876 
15000.000000     0.000869 
15060.000000     0.000861 
15120.000000     0.000853 
15180.000000     0.000847 
15240.000000     0.000840 
15300.000000     0.000832 
15360.000000     0.000824 
15420.000000     0.000817 
15480.000000     0.000809 
15540.000000     0.000802 
15600.000000     0.000795 
15660.000000     0.000785 
15720.000000     0.000777 
15780.000000     0.000767 
15840.000000     0.000757 
15900.000000     0.000748 
15960.000000     0.000738 
16020.000000     0.000729 
16080.000000     0.000721 
16140.000000     0.000710 
16200.000000     0.000702 
16260.000000     0.000695 
16320.000000     0.000686 
16380.000000     0.000678 
16440.000000     0.000672 
16500.000000     0.000666 
16560.000000     0.000656 
16620.000000     0.000646 
16680.000000     0.000635 
16740.000000     0.000626 
16800.000000     0.000618 
16860.000000     0.000609 
16920.000000     0.000601 
16980.000000     0.000593 
17040.000000     0.000585 
17100.000000     0.000578 
17160.000000     0.000571 
17220.000000     0.000565 
17280.000000     0.000557 
17340.000000     0.000550 
17400.000000     0.000543 
17460.000000     0.000536 
17520.000000     0.000528 
17580.000000     0.000520 
17640.000000     0.000514 
17700.000000     0.000506 
17760.000000     0.000498 
17820.000000     0.000490 
17880.000000     0.000483 
17940.000000     0.000477 
18000.000000     0.000470 
18060.000000     0.000465 
18120.000000     0.000458 
18180.000000     0.000449 
18240.000000     0.000441 
18300.000000     0.000434 
18360.000000     0.000428 
18420.000000     0.000420 
18480.000000     0.000413 
18540.000000     0.000406 
18600.000000     0.000399 
18660.000000     0.000392 
18720.000000     0.000387 
18780.000000     0.000381 
18840.000000     0.000373 
18900.000000     0.000366 
18960.000000     0.000359 
19020.000000     0.000353 
19080.000000     0.000348 
19140.000000     0.000341 
19200.000000     0.000331 
19260.000000     0.000322 
19320.000000     0.000311 
19380.000000     0.000300 
19440.000000     0.000293 
19500.000000     0.000288 
19560.000000     0.000282 
19620.000000     0.000276 
19680.000000     0.000267 
19740.000000     0.000258 
19800.000000     0.000252 
19860.000000     0.000246 
19920.000000     0.000240 
19980.000000     0.000234 
20040.000000     0.000227 
20100.000000     0.000218 
20160.000000     0.000205 
20220.000000     0.000194 
20280.000000     0.000194 
20340.000000     0.000194 
20400.000000     0.000194 
20460.000000     0.000194 
20520.000000     0.000194 
20580.000000     0.000194 
20640.000000     0.000194 
20700.000000     0.000194 
20760.000000     0.000194 
20820.000000     0.000194 
20880.000000     0.000194 
20940.000000     0.000194 
21000.000000     0.000194 
21060.000000     0.000194 
21120.000000     0.000194 
21180.000000     0.000194 
21240.000000     0.000194 
21300.000000     0.000194 
21360.000000     0.000194 
21420.000000     0.000194 
21480.000000     0.000194 
21540.000000     0.000194 
21600.000000     0.000194 
21660.000000     0.000194 
21720.000000     0.000194 
21780.000000     0.000194 
21840.000000     0.000194 
21900.000000     0.000194 
21960.000000     0.000194 
22020.000000     0.000194 
22080.000000     0.000194 
22140.000000     0.000194 
22200.000000     0.000194 
22260.000000     0.000194 
22320.000000     0.000194 
22380.000000     0.000194 
22440.000000     0.000194 
22500.000000     0.000194 
22560.000000     0.000194 
22620.000000     0.000194 
22680.000000     0.000194 
22740.000000     0.000194 
22800.000000     0.000194 
22860.000000     0.000194 
22920.000000     0.000194 
22980.000000     0.000194 
23040.000000     0.000194 
23100.000000     0.000194 
23160.000000     0.000194 
23220.000000     0.000194 
23280.000000     0.000194 
23340.000000     0.000194 
23400.000000     0.000194 
23460.000000     0.000194 
23520.000000     0.000194 
23580.000000     0.000194 
23640.000000     0.000194 
23700.000000     0.000194 
23760.000000     0.000194 
23820.000000     0.000194 
23880.000000     0.000194 
23940.000000     0.000194 
24000.000000     0.000194 
24060.000000     0.000194 
24120.000000     0.000194 
24180.000000     0.000194 
24240.000000     0.000194 
24300.000000     0.000194 
24360.000000     0.000194 
24420.000000     0.000194 
24480.000000     0.000194 
24540.000000     0.000194 
24600.000000     0.000194 
24660.000000     0.000194 
24720.000000     0.000194 
24780.000000     0.000194 
24840.000000     0.000194 
24900.000000     0.000194 
24960.000000     0.000194 
25020.000000     0.000194 
25080.000000     0.000194 
25140.000000     0.000194 
25200.000000     0.000194 
25260.000000     0.000194 
25320.000000     0.000194 
25380.000000     0.000194 
25440.000000     0.000194 
25500.000000     0.000194 
25560.000000     0.000194 
25620.000000     0.000194 
25680.000000     0.000194 
25740.000000     0.000194 
25800.000000     0.000194 
25860.000000     0.000194 
25920.000000     0.000194 
25980.000000     0.000194 
26040.000000     0.000194 
26100.000000     0.000194 
26160.000000     0.000194 
26220.000000     0.000194 
26280.000000     0.000194 
26340.000000     0.000194 
26400.000000     0.000194 
26460.000000     0.000194 
26520.000000     0.000194 
26580.000000     0.000194 
26640.000000     0.000194 
26700.000000     0.000194 
26760.000000     0.000194 
26820.000000     0.000194 
26880.000000     0.000194 
26940.000000     0.000194 
27000.000000     0.000194 
27060.000000     0.000194 
27120.000000     0.000194 
27180.000000     0.000194 
27240.000000     0.000194 
27300.000000     0.000194 
27360.000000     0.000194 
27420.000000     0.000194 
27480.000000     0.000194 
27540.000000     0.000194 
27600.000000     0.000194 
27660.000000     0.000194 
27720.000000     0.000194 
27780.000000     0.000194 
27840.000000     0.000194 
27900.000000     0.000194 
27960.000000     0.000194 
28020.000000     0.000194 
28080.000000     0.000194 
28140.000000     0.000194 
28200.000000     0.000194 
28260.000000     0.000194 
28320.000000     0.000194 
28380.000000     0.000194 
28440.000000     0.000194 
28500.000000     0.000194 
28560.000000     0.000194 
28620.000000     0.000194 
28680.000000     0.000194 
28740.000000     0.000194 
28800.000000     0.000194 
28860.000000     0.000194 

[Forcing]
name       = lat_873
function   = timeseries
timeInterpolation = linear
quantity   = time
unit       = minutes since 2000-01-01 00:00:00
quantity   = lateral_discharge
unit       = m3/s
    0.000000     0.000000 
   60.000000     0.000060 
  120.000000     0.000064 
  180.000000     0.000086 
  240.000000     0.000087 
  300.000000     0.000090 
[...]
13860.000000     0.001688 
13920.000000     0.001673 
13980.000000     0.001659 
14040.000000     0.001649 
14100.000000     0.001636 
14160.000000     0.001621 
14220.000000     0.001609 
14280.000000     0.001594 
14340.000000     0.001579 
14400.000000     0.001564 
14460.000000     0.001551 
14520.000000     0.001535 
14580.000000     0.001521 
14640.000000     0.001508 
14700.000000     0.001495 
14760.000000     0.001479 
14820.000000     0.001465 
14880.000000     0.001455 
14940.000000     0.001442 
15000.000000     0.001430 
15060.000000     0.001416 
15120.000000     0.001404 
15180.000000     0.001394 
15240.000000     0.001383 
15300.000000     0.001369 
15360.000000     0.001356 
15420.000000     0.001343 
15480.000000     0.001331 
15540.000000     0.001319 
15600.000000     0.001308 
15660.000000     0.001292 
15720.000000     0.001279 
15780.000000     0.001261 
15840.000000     0.001246 
15900.000000     0.001231 
15960.000000     0.001214 
16020.000000     0.001199 
16080.000000     0.001187 
16140.000000     0.001169 
16200.000000     0.001155 
16260.000000     0.001144 
16320.000000     0.001129 
16380.000000     0.001116 
16440.000000     0.001105 
16500.000000     0.001095 
16560.000000     0.001080 
16620.000000     0.001062 
16680.000000     0.001044 
16740.000000     0.001031 
16800.000000     0.001017 
16860.000000     0.001003 
16920.000000     0.000989 
16980.000000     0.000975 
17040.000000     0.000962 
17100.000000     0.000950 
17160.000000     0.000939 
17220.000000     0.000929 
17280.000000     0.000917 
17340.000000     0.000905 
17400.000000     0.000893 
17460.000000     0.000882 
17520.000000     0.000869 
17580.000000     0.000856 
17640.000000     0.000845 
17700.000000     0.000832 
17760.000000     0.000819 
17820.000000     0.000805 
17880.000000     0.000794 
17940.000000     0.000784 
18000.000000     0.000773 
18060.000000     0.000765 
18120.000000     0.000753 
18180.000000     0.000739 
18240.000000     0.000726 
18300.000000     0.000714 
18360.000000     0.000704 
18420.000000     0.000691 
18480.000000     0.000679 
18540.000000     0.000668 
18600.000000     0.000656 
18660.000000     0.000645 
18720.000000     0.000637 
18780.000000     0.000626 
18840.000000     0.000614 
18900.000000     0.000602 
18960.000000     0.000590 
19020.000000     0.000581 
19080.000000     0.000572 
19140.000000     0.000561 
19200.000000     0.000545 
19260.000000     0.000530 
19320.000000     0.000511 
19380.000000     0.000493 
19440.000000     0.000482 
19500.000000     0.000473 
19560.000000     0.000465 
19620.000000     0.000454 
19680.000000     0.000439 
19740.000000     0.000425 
19800.000000     0.000415 
19860.000000     0.000405 
19920.000000     0.000396 
19980.000000     0.000385 
20040.000000     0.000373 
20100.000000     0.000358 
20160.000000     0.000337 
20220.000000     0.000319 
20280.000000     0.000319 
20340.000000     0.000319 
20400.000000     0.000319 
20460.000000     0.000319 
20520.000000     0.000319 
20580.000000     0.000319 
20640.000000     0.000319 
20700.000000     0.000319 
20760.000000     0.000319 
20820.000000     0.000319 
20880.000000     0.000319 
20940.000000     0.000319 
21000.000000     0.000319 
21060.000000     0.000319 
21120.000000     0.000319 
21180.000000     0.000319 
21240.000000     0.000319 
21300.000000     0.000319 
21360.000000     0.000319 
21420.000000     0.000319 
21480.000000     0.000319 
21540.000000     0.000319 
21600.000000     0.000319 
21660.000000     0.000319 
21720.000000     0.000319 
21780.000000     0.000319 
21840.000000     0.000319 
21900.000000     0.000319 
21960.000000     0.000319 
22020.000000     0.000319 
22080.000000     0.000319 
22140.000000     0.000319 
22200.000000     0.000319 
22260.000000     0.000319 
22320.000000     0.000319 
22380.000000     0.000319 
22440.000000     0.000319 
22500.000000     0.000319 
22560.000000     0.000319 
22620.000000     0.000319 
22680.000000     0.000319 
22740.000000     0.000319 
22800.000000     0.000319 
22860.000000     0.000319 
22920.000000     0.000319 
22980.000000     0.000319 
23040.000000     0.000319 
23100.000000     0.000319 
23160.000000     0.000319 
23220.000000     0.000319 
23280.000000     0.000319 
23340.000000     0.000319 
23400.000000     0.000319 
23460.000000     0.000319 
23520.000000     0.000319 
23580.000000     0.000319 
23640.000000     0.000319 
23700.000000     0.000319 
23760.000000     0.000319 
23820.000000     0.000319 
23880.000000     0.000319 
23940.000000     0.000319 
24000.000000     0.000319 
24060.000000     0.000319 
24120.000000     0.000319 
24180.000000     0.000319 
24240.000000     0.000319 
24300.000000     0.000319 
24360.000000     0.000319 
24420.000000     0.000319 
24480.000000     0.000319 
24540.000000     0.000319 
24600.000000     0.000319 
24660.000000     0.000319 
24720.000000     0.000319 
24780.000000     0.000319 
24840.000000     0.000319 
24900.000000     0.000319 
24960.000000     0.000319 
25020.000000     0.000319 
25080.000000     0.000319 
25140.000000     0.000319 
25200.000000     0.000319 
25260.000000     0.000319 
25320.000000     0.000319 
25380.000000     0.000319 
25440.000000     0.000319 
25500.000000     0.000319 
25560.000000     0.000319 
25620.000000     0.000319 
25680.000000     0.000319 
25740.000000     0.000319 
25800.000000     0.000319 
25860.000000     0.000319 
25920.000000     0.000319 
25980.000000     0.000319 
26040.000000     0.000319 
26100.000000     0.000319 
26160.000000     0.000319 
26220.000000     0.000319 
26280.000000     0.000319 
26340.000000     0.000319 
26400.000000     0.000319 
26460.000000     0.000319 
26520.000000     0.000319 
26580.000000     0.000319 
26640.000000     0.000319 
26700.000000     0.000319 
26760.000000     0.000319 
26820.000000     0.000319 
26880.000000     0.000319 
26940.000000     0.000319 
27000.000000     0.000319 
27060.000000     0.000319 
27120.000000     0.000319 
27180.000000     0.000319 
27240.000000     0.000319 
27300.000000     0.000319 
27360.000000     0.000319 
27420.000000     0.000319 
27480.000000     0.000319 
27540.000000     0.000319 
27600.000000     0.000319 
27660.000000     0.000319 
27720.000000     0.000319 
27780.000000     0.000319 
27840.000000     0.000319 
27900.000000     0.000319 
27960.000000     0.000319 
28020.000000     0.000319 
28080.000000     0.000319 
28140.000000     0.000319 
28200.000000     0.000319 
28260.000000     0.000319 
28320.000000     0.000319 
28380.000000     0.000319 
28440.000000     0.000319 
28500.000000     0.000319 
28560.000000     0.000319 
28620.000000     0.000319 
28680.000000     0.000319 
28740.000000     0.000319 
28800.000000     0.000319 
28860.000000     0.000319 

[Forcing]
name       = lat_1209
function   = timeseries
timeInterpolation = linear
quantity   = time
unit       = minutes since 2000-01-01 00:00:00
quantity   = lateral_discharge
unit       = m3/s
    0.000000     0.000000 
   60.000000     0.000125 
  120.000000     0.000132 
  180.000000     0.000177 
  240.000000     0.000181 
  300.000000     0.000186 
  360.000000     0.000189 
  420.000000     0.000192 
  480.000000     0.000218 
  540.000000     0.000224 
  600.000000     0.000230 
  660.000000     0.000236 
  720.000000     0.000243 
  780.000000     0.000249 
  840.000000     0.000263 
  900.000000     0.000287 
  960.000000     0.000292 
 1020.000000     0.000298 
 1080.000000     0.000304 
 1140.000000     0.000309 
 1200.000000     0.000313 
 1260.000000     0.000318 
 1320.000000     0.000323 
 1380.000000     0.000329 
 1440.000000     0.000338 
 1500.000000     0.000345 
 1560.000000     0.000350 
 1620.000000     0.000353 
 1680.000000     0.000358 
 1740.000000     0.000365 
 1800.000000     0.000374 
 1860.000000     0.000385 
 1920.000000     0.000395 
 1980.000000     0.000406 
 2040.000000     0.000416 
 2100.000000     0.000427 
 2160.000000     0.000437 
 2220.000000     0.000443 
 2280.000000     0.000449 
 2340.000000     0.000456 
 2400.000000     0.000462 
 2460.000000     0.000467 
 2520.000000     0.000472 
 2580.000000     0.000478 
 2640.000000     0.000485 
 2700.000000     0.000491 
 2760.000000     0.000498 
 2820.000000     0.000507 
 2880.000000     0.000516 
 2940.000000     0.000524 
 3000.000000     0.000533 
 3060.000000     0.000542 
 3120.000000     0.000550 
 3180.000000     0.000562 
 3240.000000     0.000572 
 3300.000000     0.000582 
 3360.000000     0.000592 
 3420.000000     0.000598 
 3480.000000     0.000604 
 3540.000000     0.000611 
 3600.000000     0.000617 
 3660.000000     0.000623 
 3720.000000     0.000629 
 3780.000000     0.000636 
 3840.000000     0.000643 
 3900.000000     0.000650 
 3960.000000     0.000656 
 4020.000000     0.000661 
 4080.000000     0.000668 
 4140.000000     0.000676 
 4200.000000     0.000684 
 4260.000000     0.000693 
 4320.000000     0.000701 
 4380.000000     0.000710 
 4440.000000     0.000719 
 4500.000000     0.000729 
 4560.000000     0.000740 
 4620.000000     0.000752 
 4680.000000     0.000762 
 4740.000000     0.000773 
 4800.000000     0.000781 
 4860.000000     0.000792 
 4920.000000     0.000803 
 4980.000000     0.000816 
 5040.000000     0.000829 
 5100.000000     0.000840 
 5160.000000     0.000852 
 5220.000000     0.000862 
 5280.000000     0.000873 
 5340.000000     0.000884 
 5400.000000     0.000894 
 5460.000000     0.000904 
 5520.000000     0.000914 
 5580.000000     0.000926 
 5640.000000     0.000938 
 5700.000000     0.000952 
 5760.000000     0.000965 
 5820.000000     0.000977 
 5880.000000     0.000991 
 5940.000000     0.001002 
 6000.000000     0.001012 
 6060.000000     0.001027 
 6120.000000     0.001041 
 6180.000000     0.001056 
 6240.000000     0.001072 
 6300.000000     0.001089 
 6360.000000     0.001106 
 6420.000000     0.001123 
 6480.000000     0.001140 
 6540.000000     0.001162 
 6600.000000     0.001180 
 6660.000000     0.001199 
 6720.000000     0.001217 
 6780.000000     0.001234 
 6840.000000     0.001253 
 6900.000000     0.001266 
 6960.000000     0.001283 
 7020.000000     0.001301 
 7080.000000     0.001319 
 7140.000000     0.001335 
 7200.000000     0.001352 
 7260.000000     0.001369 
 7320.000000     0.001389 
 7380.000000     0.001405 
 7440.000000     0.001425 
 7500.000000     0.001441 
 7560.000000     0.001458 
 7620.000000     0.001480 
 7680.000000     0.001503 
 7740.000000     0.001525 
 7800.000000     0.001542 
 7860.000000     0.001565 
 7920.000000     0.001585 
 7980.000000     0.001612 
 8040.000000     0.001633 
 8100.000000     0.001659 
 8160.000000     0.001681 
 8220.000000     0.001705 
 8280.000000     0.001740 
 8340.000000     0.001770 
 8400.000000     0.001803 
 8460.000000     0.001836 
 8520.000000     0.001865 
 8580.000000     0.001896 
 8640.000000     0.001935 
 8700.000000     0.001970 
 8760.000000     0.002018 
 8820.000000     0.002062 
 8880.000000     0.002098 
 8940.000000     0.002138 
 9000.000000     0.002183 
 9060.000000     0.002246 
 9120.000000     0.002304 
 9180.000000     0.002369 
 9240.000000     0.002466 
 9300.000000     0.002551 
 9360.000000     0.002644 
 9420.000000     0.002761 
 9480.000000     0.002904 
 9540.000000     0.003020 
 9600.000000     0.003138 
 9660.000000     0.003292 
 9720.000000     0.003468 
 9780.000000     0.003697 
 9840.000000     0.003962 
 9900.000000     0.004120 
 9960.000000     0.004310 
10020.000000     0.004569 
10080.000000     0.004736 
10140.000000     0.004842 
10200.000000     0.004769 
10260.000000     0.004638 
10320.000000     0.004470 
10380.000000     0.004324 
10440.000000     0.004196 
10500.000000     0.004074 
10560.000000     0.003992 
10620.000000     0.003894 
10680.000000     0.003775 
10740.000000     0.003672 
10800.000000     0.003564 
10860.000000     0.003470 
10920.000000     0.003379 
10980.000000     0.003286 
11040.000000     0.003204 
11100.000000     0.003127 
11160.000000     0.003047 
11220.000000     0.002989 
11280.000000     0.002931 
11340.000000     0.002870 
11400.000000     0.002813 
11460.000000     0.002770 
11520.000000     0.002730 
11580.000000     0.002693 
11640.000000     0.002654 
11700.000000     0.002620 
11760.000000     0.002584 
11820.000000     0.002551 
11880.000000     0.002524 
11940.000000     0.002484 
12000.000000     0.002448 
12060.000000     0.002412 
12120.000000     0.002386 
12180.000000     0.002361 
12240.000000     0.002334 
12300.000000     0.002303 
12360.000000     0.002274 
12420.000000     0.002244 
12480.000000     0.002214 
12540.000000     0.002181 
12600.000000     0.002154 
12660.000000     0.002125 
12720.000000     0.002094 
12780.000000     0.002073 
12840.000000     0.002046 
12900.000000     0.002022 
12960.000000     0.002003 
13020.000000     0.001982 
13080.000000     0.001964 
13140.000000     0.001939 
13200.000000     0.001919 
13260.000000     0.001901 
13320.000000     0.001880 
13380.000000     0.001864 
13440.000000     0.001842 
13500.000000     0.001819 
13560.000000     0.001800 
13620.000000     0.001779 
13680.000000     0.001758 
13740.000000     0.001741 
13800.000000     0.001722 
13860.000000     0.001706 
13920.000000     0.001691 
13980.000000     0.001677 
14040.000000     0.001667 
14100.000000     0.001654 
14160.000000     0.001638 
14220.000000     0.001626 
14280.000000     0.001611 
14340.000000     0.001595 
14400.000000     0.001580 
14460.000000     0.001567 
14520.000000     0.001552 
14580.000000     0.001538 
14640.000000     0.001524 
14700.000000     0.001511 
14760.000000     0.001495 
14820.000000     0.001481 
14880.000000     0.001470 
14940.000000     0.001457 
15000.000000     0.001446 
15060.000000     0.001431 
15120.000000     0.001419 
15180.000000     0.001408 
15240.000000     0.001398 
15300.000000     0.001383 
15360.000000     0.001371 
15420.000000     0.001358 
15480.000000     0.001345 
15540.000000     0.001333 
15600.000000     0.001322 
15660.000000     0.001306 
15720.000000     0.001292 
15780.000000     0.001275 
15840.000000     0.001259 
15900.000000     0.001244 
15960.000000     0.001227 
16020.000000     0.001212 
16080.000000     0.001200 
16140.000000     0.001181 
16200.000000     0.001168 
16260.000000     0.001156 
16320.000000     0.001141 
16380.000000     0.001127 
16440.000000     0.001117 
16500.000000     0.001107 
16560.000000     0.001091 
16620.000000     0.001073 
16680.000000     0.001055 
16740.000000     0.001042 
16800.000000     0.001027 
16860.000000     0.001013 
16920.000000     0.001000 
16980.000000     0.000986 
17040.000000     0.000972 
17100.000000     0.000960 
17160.000000     0.000949 
17220.000000     0.000939 
17280.000000     0.000926 
17340.000000     0.000915 
17400.000000     0.000903 
17460.000000     0.000891 
17520.000000     0.000878 
17580.000000     0.000865 
17640.000000     0.000854 
17700.000000     0.000841 
17760.000000     0.000828 
17820.000000     0.000814 
17880.000000     0.000803 
17940.000000     0.000792 
18000.000000     0.000782 
18060.000000     0.000773 
18120.000000     0.000761 
18180.000000     0.000747 
18240.000000     0.000734 
18300.000000     0.000722 
18360.000000     0.000711 
18420.000000     0.000698 
18480.000000     0.000686 
18540.000000     0.000675 
18600.000000     0.000663 
18660.000000     0.000652 
18720.000000     0.000644 
18780.000000     0.000633 
18840.000000     0.000621 
18900.000000     0.000609 
18960.000000     0.000596 
19020.000000     0.000587 
19080.000000     0.000578 
19140.000000     0.000567 
19200.000000     0.000551 
19260.000000     0.000535 
19320.000000     0.000516 
19380.000000     0.000498 
19440.000000     0.000487 
19500.000000     0.000478 
19560.000000     0.000470 
19620.000000     0.000459 
19680.000000     0.000444 
19740.000000     0.000430 
19800.000000     0.000419 
19860.000000     0.000409 
19920.000000     0.000400 
19980.000000     0.000389 
20040.000000     0.000377 
20100.000000     0.000362 
20160.000000     0.000340 
20220.000000     0.000322 
20280.000000     0.000322 
20340.000000     0.000322 
20400.000000     0.000322 
20460.000000     0.000322 
20520.000000     0.000322 
20580.000000     0.000322 
20640.000000     0.000322 
20700.000000     0.000322 
20760.000000     0.000322 
20820.000000     0.000322 
20880.000000     0.000322 
20940.000000     0.000322 
21000.000000     0.000322 
21060.000000     0.000322 
21120.000000     0.000322 
21180.000000     0.000322 
21240.000000     0.000322 
21300.000000     0.000322 
21360.000000     0.000322 
21420.000000     0.000322 
21480.000000     0.000322 
21540.000000     0.000322 
21600.000000     0.000322 
21660.000000     0.000322 
21720.000000     0.000322 
21780.000000     0.000322 
21840.000000     0.000322 
21900.000000     0.000322 
21960.000000     0.000322 
22020.000000     0.000322 
22080.000000     0.000322 
22140.000000     0.000322 
22200.000000     0.000322 
22260.000000     0.000322 
22320.000000     0.000322 
22380.000000     0.000322 
22440.000000     0.000322 
22500.000000     0.000322 
22560.000000     0.000322 
22620.000000     0.000322 
22680.000000     0.000322 
22740.000000     0.000322 
22800.000000     0.000322 
22860.000000     0.000322 
22920.000000     0.000322 
22980.000000     0.000322 
23040.000000     0.000322 
23100.000000     0.000322 
23160.000000     0.000322 
23220.000000     0.000322 
23280.000000     0.000322 
23340.000000     0.000322 
23400.000000     0.000322 
23460.000000     0.000322 
23520.000000     0.000322 
23580.000000     0.000322 
23640.000000     0.000322 
23700.000000     0.000322 
23760.000000     0.000322 
23820.000000     0.000322 
23880.000000     0.000322 
23940.000000     0.000322 
24000.000000     0.000322 
24060.000000     0.000322 
24120.000000     0.000322 
24180.000000     0.000322 
24240.000000     0.000322 
24300.000000     0.000322 
24360.000000     0.000322 
24420.000000     0.000322 
24480.000000     0.000322 
24540.000000     0.000322 
24600.000000     0.000322 
24660.000000     0.000322 
24720.000000     0.000322 
24780.000000     0.000322 
24840.000000     0.000322 
24900.000000     0.000322 
24960.000000     0.000322 
25020.000000     0.000322 
25080.000000     0.000322 
25140.000000     0.000322 
25200.000000     0.000322 
25260.000000     0.000322 
25320.000000     0.000322 
25380.000000     0.000322 
25440.000000     0.000322 
25500.000000     0.000322 
25560.000000     0.000322 
25620.000000     0.000322 
25680.000000     0.000322 
25740.000000     0.000322 
25800.000000     0.000322 
25860.000000     0.000322 
25920.000000     0.000322 
25980.000000     0.000322 
26040.000000     0.000322 
26100.000000     0.000322 
26160.000000     0.000322 
26220.000000     0.000322 
26280.000000     0.000322 
26340.000000     0.000322 
26400.000000     0.000322 
26460.000000     0.000322 
26520.000000     0.000322 
26580.000000     0.000322 
26640.000000     0.000322 
26700.000000     0.000322 
26760.000000     0.000322 
26820.000000     0.000322 
26880.000000     0.000322 
26940.000000     0.000322 
27000.000000     0.000322 
27060.000000     0.000322 
27120.000000     0.000322 
27180.000000     0.000322 
27240.000000     0.000322 
27300.000000     0.000322 
27360.000000     0.000322 
27420.000000     0.000322 
27480.000000     0.000322 
27540.000000     0.000322 
27600.000000     0.000322 
27660.000000     0.000322 
27720.000000     0.000322 
27780.000000     0.000322 
27840.000000     0.000322 
27900.000000     0.000322 
27960.000000     0.000322 
28020.000000     0.000322 
28080.000000     0.000322 
28140.000000     0.000322 
28200.000000     0.000322 
28260.000000     0.000322 
28320.000000     0.000322 
28380.000000     0.000322 
28440.000000     0.000322 
28500.000000     0.000322 
28560.000000     0.000322 
28620.000000     0.000322 
28680.000000     0.000322 
28740.000000     0.000322 
28800.000000     0.000322 
28860.000000     0.000322 
