# Generated with D-HyDAMO in delftd3fmpy v.1.2.0 on 2021-09-09T09:29:28.223076Z.
# Tested and compatible with D-Flow FM Deltares, D-Flow FM Version 1.2.124.69571M, DIMRset Deltares, DIMR_EXE Version 2.00.00.69571M (Win64) and D-HYDRO suite 1D2D D-HYDRO Suite 1D2D (1.0.0.53506),.
# 
[General]
fileVersion = 2.00
fileType = obsPoints

[ObservationPoint]
	name = ObsPt1
	branchId = riv_RS1_1810
	chainage = 107.465
	locationType = 1d

[ObservationPoint]
	name = ObsPt2
	branchId = riv_RS1_1810
	chainage = 114.127
	locationType = 1d

