# Generated with D-HyDAMO in delftd3fmpy v.1.2.0 on 2021-09-09T09:29:28.223076Z.
# Tested and compatible with D-Flow FM Deltares, D-Flow FM Version 1.2.124.69571M, DIMRset Deltares, DIMR_EXE Version 2.00.00.69571M (Win64) and D-HYDRO suite 1D2D D-HYDRO Suite 1D2D (1.0.0.53506),.
# 
[General]
fileVersion = 3.00
fileType = structure
	
[Structure]
	type = weir
	id = Weir_RS373-st1
	name = Weir_RS373-st1
	branchid = riv_RS373_2442
	chainage = 584.463
	allowedFlowDir = both
	crestLevel = 10.429
	crestWidth = 0.71
	corrCoeff = 1
	useVelocityHeight = true
	crest = boundaries.bc

[Structure]
	type = weir
	id = Weir_RS373-st2
	name = Weir_RS373-st2
	branchid = riv_RS375_41
	chainage = 573.639
	allowedFlowDir = both
	crestLevel = 9.431
	crestWidth = 0.71
	corrCoeff = 1
	useVelocityHeight = true

[Structure]
	type = weir
	id = Weir_RS1-st15
	name = Weir_RS1-st15
	branchid = riv_RS1_1810
	chainage = 977.222
	allowedFlowDir = both
	crestLevel = 8.235
	crestWidth = 7.19
	corrCoeff = 1
	useVelocityHeight = true

[Structure]
	type = weir
	id = extra_weir
	name = extra_weir
	branchid = riv_RS1_1810
	chainage = 950.0
	allowedFlowDir = both
	crestLevel = 8.0
	crestWidth = 7.5
	corrCoeff = 1.0
	useVelocityHeight = true

[Structure]
	type = bridge
	id = RS1-KBR32
	name = RS1-KBR32
	branchid = riv_RS375_41
	chainage = 701.141
	allowedFlowDir = both
	csDefId = prof_RS1-KBR32
	shift = 0.0
	inletLossCoeff = 1
	outletLossCoeff = 1
	frictionType = Strickler
	friction = 70
	length = 3.54

[Structure]
	type = bridge
	id = RS1-KBR31
	name = RS1-KBR31
	branchid = riv_RS1_264
	chainage = 104.184
	allowedFlowDir = both
	csDefId = W_980.1S_0
	shift = 0.0
	inletLossCoeff = 1
	outletLossCoeff = 1
	frictionType = Strickler
	friction = 70
	length = 9.75

[Structure]
	type = pump
	id = RS372-gm1_pomp_1
	name = RS372-gm1_pomp_1
	branchid = riv_RS372_175
	chainage = 0.977
	orientation = positive
	numstages = 1
	controlSide = suctionSide
	capacity = 0.44
	startlevelSuctionSide = 9.3
	stoplevelSuctionSide = 9.2
	startLevelDeliverySide = 0.0
	stopLevelDeliverySide = 0.0
	head = 0.0
	reductionFactor = 0.0

[Structure]
	type = pump
	id = RS178-gm1_pomp_1
	name = RS178-gm1_pomp_1
	branchid = riv_RS375_2611
	chainage = 341.699
	orientation = positive
	numstages = 1
	controlSide = suctionSide
	capacity = 0.44
	startlevelSuctionSide = 8.6
	stoplevelSuctionSide = 8.4
	startLevelDeliverySide = 0.0
	stopLevelDeliverySide = 0.0
	head = 0.0
	reductionFactor = 0.0
	
[Structure]
	type = universalWeir
	id = UWeir_Test1
	name = UWeir_Test1
	branchid = riv_RS375_41
	chainage = 475.277
	allowedFlowDir = both
	numLevels = 5
	yValues =   0.000   1.000   2.000   4.000   6.000
	zValues =   1.100   0.500   0.000   0.500   1.100
	crestLevel = 7.935
	dischargeCoeff = 1

[Structure]
	type = universalWeir
	id = UWeir_Test2
	name = UWeir_Test2
	branchid = riv_RS1_264
	chainage = 104.147
	allowedFlowDir = both
	numLevels = 4
	yValues =   0.000   2.561   3.361   5.891
	zValues =   0.845   0.000   0.000   0.835
	crestLevel = 7.935
	dischargeCoeff = 1

[Structure]
	type = orifice
	id = Orifice_Test1
	name = Orifice_Test1
	branchid = riv_RS1_264
	chainage = 104.147
	allowedFlowDir = both
	crestLevel = 7.935
	crestWidth = 10.1
	gateLowerEdgeLevel = 8.95
	useLimitFlowPos = false
	limitFlowPos = 0.0
	useLimitFlowNeg = false
	limitFlowNeg = 0.0
	corrCoeff = 1
	useVelocityHeight = true

[structure]
	type = compound
	id = cmpnd_1
	name = cmpnd_1
	numStructures = 2
	structureIds = Orifice_Test1;UWeir_Test2

